
---------- Begin Simulation Statistics ----------
final_tick                                76823979500                       # Number of ticks from beginning of simulation (restored from checkpoints and never reset)
host_inst_rate                                 378085                       # Simulator instruction rate (inst/s)
host_mem_usage                                 699596                       # Number of bytes of host memory used
host_op_rate                                   378098                       # Simulator op (including micro ops) rate (op/s)
host_seconds                                   264.49                       # Real time elapsed on the host
host_tick_rate                              290458861                       # Simulator tick rate (ticks/s)
sim_freq                                 1000000000000                       # Frequency of simulated ticks
sim_insts                                   100000000                       # Number of instructions simulated
sim_ops                                     100003724                       # Number of ops (including micro ops) simulated
sim_seconds                                  0.076824                       # Number of seconds simulated
sim_ticks                                 76823979500                       # Number of ticks simulated
system.cpu.branchPred.BTBCorrect                    0                       # Number of correct BTB predictions (this stat may not work properly.
system.cpu.branchPred.BTBHitPct             99.492521                       # BTB Hit Percentage
system.cpu.branchPred.BTBHits                  596980                       # Number of BTB hits
system.cpu.branchPred.BTBLookups               600025                       # Number of BTB lookups
system.cpu.branchPred.RASInCorrect                  6                       # Number of incorrect RAS predictions.
system.cpu.branchPred.condIncorrect               870                       # Number of conditional branches incorrect
system.cpu.branchPred.condPredicted            600159                       # Number of conditional branches predicted
system.cpu.branchPred.indirectHits                166                       # Number of indirect target hits.
system.cpu.branchPred.indirectLookups             407                       # Number of indirect predictor lookups.
system.cpu.branchPred.indirectMisses              241                       # Number of indirect misses.
system.cpu.branchPred.lookups                  602341                       # Number of BP lookups
system.cpu.branchPred.usedRAS                     603                       # Number of times the RAS was used to get a target.
system.cpu.branchPredindirectMispredicted          107                       # Number of mispredicted indirect branches.
system.cpu.committedInsts                   100000000                       # Number of instructions committed
system.cpu.committedOps                     100003724                       # Number of ops (including micro ops) committed
system.cpu.cpi                               1.536480                       # CPI: cycles per instruction
system.cpu.discardedOps                          2666                       # Number of ops (including micro ops) which were discarded before commit
system.cpu.dtb.accesses                             0                       # DTB accesses
system.cpu.dtb.align_faults                         0                       # Number of TLB faults due to alignment restrictions
system.cpu.dtb.domain_faults                        0                       # Number of TLB faults due to domain restrictions
system.cpu.dtb.flush_entries                        0                       # Number of entries that have been flushed from TLB
system.cpu.dtb.flush_tlb                            0                       # Number of times complete TLB was flushed
system.cpu.dtb.flush_tlb_asid                       0                       # Number of times TLB was flushed by ASID
system.cpu.dtb.flush_tlb_mva                        0                       # Number of times TLB was flushed by MVA
system.cpu.dtb.flush_tlb_mva_asid                   0                       # Number of times TLB was flushed by MVA & ASID
system.cpu.dtb.hits                                 0                       # DTB hits
system.cpu.dtb.inst_accesses                        0                       # ITB inst accesses
system.cpu.dtb.inst_hits                            0                       # ITB inst hits
system.cpu.dtb.inst_misses                          0                       # ITB inst misses
system.cpu.dtb.misses                               0                       # DTB misses
system.cpu.dtb.perms_faults                         0                       # Number of TLB faults due to permissions restrictions
system.cpu.dtb.prefetch_faults                      0                       # Number of TLB faults due to prefetch
system.cpu.dtb.read_accesses                        0                       # DTB read accesses
system.cpu.dtb.read_hits                            0                       # DTB read hits
system.cpu.dtb.read_misses                          0                       # DTB read misses
system.cpu.dtb.stage2_mmu.stage2_tlb.accesses            0                       # DTB accesses
system.cpu.dtb.stage2_mmu.stage2_tlb.align_faults            0                       # Number of TLB faults due to alignment restrictions
system.cpu.dtb.stage2_mmu.stage2_tlb.domain_faults            0                       # Number of TLB faults due to domain restrictions
system.cpu.dtb.stage2_mmu.stage2_tlb.flush_entries            0                       # Number of entries that have been flushed from TLB
system.cpu.dtb.stage2_mmu.stage2_tlb.flush_tlb            0                       # Number of times complete TLB was flushed
system.cpu.dtb.stage2_mmu.stage2_tlb.flush_tlb_asid            0                       # Number of times TLB was flushed by ASID
system.cpu.dtb.stage2_mmu.stage2_tlb.flush_tlb_mva            0                       # Number of times TLB was flushed by MVA
system.cpu.dtb.stage2_mmu.stage2_tlb.flush_tlb_mva_asid            0                       # Number of times TLB was flushed by MVA & ASID
system.cpu.dtb.stage2_mmu.stage2_tlb.hits            0                       # DTB hits
system.cpu.dtb.stage2_mmu.stage2_tlb.inst_accesses            0                       # ITB inst accesses
system.cpu.dtb.stage2_mmu.stage2_tlb.inst_hits            0                       # ITB inst hits
system.cpu.dtb.stage2_mmu.stage2_tlb.inst_misses            0                       # ITB inst misses
system.cpu.dtb.stage2_mmu.stage2_tlb.misses            0                       # DTB misses
system.cpu.dtb.stage2_mmu.stage2_tlb.perms_faults            0                       # Number of TLB faults due to permissions restrictions
system.cpu.dtb.stage2_mmu.stage2_tlb.prefetch_faults            0                       # Number of TLB faults due to prefetch
system.cpu.dtb.stage2_mmu.stage2_tlb.read_accesses            0                       # DTB read accesses
system.cpu.dtb.stage2_mmu.stage2_tlb.read_hits            0                       # DTB read hits
system.cpu.dtb.stage2_mmu.stage2_tlb.read_misses            0                       # DTB read misses
system.cpu.dtb.stage2_mmu.stage2_tlb.walker.walkRequestOrigin_Requested::Data            0                       # Table walker requests started/completed, data/inst
system.cpu.dtb.stage2_mmu.stage2_tlb.walker.walkRequestOrigin_Requested::Inst            0                       # Table walker requests started/completed, data/inst
system.cpu.dtb.stage2_mmu.stage2_tlb.walker.walkRequestOrigin_Requested::total            0                       # Table walker requests started/completed, data/inst
system.cpu.dtb.stage2_mmu.stage2_tlb.walker.walkRequestOrigin_Completed::Data            0                       # Table walker requests started/completed, data/inst
system.cpu.dtb.stage2_mmu.stage2_tlb.walker.walkRequestOrigin_Completed::Inst            0                       # Table walker requests started/completed, data/inst
system.cpu.dtb.stage2_mmu.stage2_tlb.walker.walkRequestOrigin_Completed::total            0                       # Table walker requests started/completed, data/inst
system.cpu.dtb.stage2_mmu.stage2_tlb.walker.walkRequestOrigin::total            0                       # Table walker requests started/completed, data/inst
system.cpu.dtb.stage2_mmu.stage2_tlb.walker.walks            0                       # Table walker walks requested
system.cpu.dtb.stage2_mmu.stage2_tlb.write_accesses            0                       # DTB write accesses
system.cpu.dtb.stage2_mmu.stage2_tlb.write_hits            0                       # DTB write hits
system.cpu.dtb.stage2_mmu.stage2_tlb.write_misses            0                       # DTB write misses
system.cpu.dtb.walker.walkRequestOrigin_Requested::Data            0                       # Table walker requests started/completed, data/inst
system.cpu.dtb.walker.walkRequestOrigin_Requested::Inst            0                       # Table walker requests started/completed, data/inst
system.cpu.dtb.walker.walkRequestOrigin_Requested::total            0                       # Table walker requests started/completed, data/inst
system.cpu.dtb.walker.walkRequestOrigin_Completed::Data            0                       # Table walker requests started/completed, data/inst
system.cpu.dtb.walker.walkRequestOrigin_Completed::Inst            0                       # Table walker requests started/completed, data/inst
system.cpu.dtb.walker.walkRequestOrigin_Completed::total            0                       # Table walker requests started/completed, data/inst
system.cpu.dtb.walker.walkRequestOrigin::total            0                       # Table walker requests started/completed, data/inst
system.cpu.dtb.walker.walks                         0                       # Table walker walks requested
system.cpu.dtb.write_accesses                       0                       # DTB write accesses
system.cpu.dtb.write_hits                           0                       # DTB write hits
system.cpu.dtb.write_misses                         0                       # DTB write misses
system.cpu.fetch2.amo_instructions                  0                       # Number of memory atomic instructions successfully decoded
system.cpu.fetch2.fp_instructions                   0                       # Number of floating point instructions successfully decoded
system.cpu.fetch2.int_instructions           49412067                       # Number of integer instructions successfully decoded
system.cpu.fetch2.load_instructions          36900955                       # Number of memory load instructions successfully decoded
system.cpu.fetch2.store_instructions         13094496                       # Number of memory store instructions successfully decoded
system.cpu.fetch2.vec_instructions                  0                       # Number of SIMD instructions successfully decoded
system.cpu.idleCycles                        40672810                       # Total number of cycles that the object has spent stopped
system.cpu.ipc                               0.650838                       # IPC: instructions per cycle
system.cpu.itb.accesses                             0                       # DTB accesses
system.cpu.itb.align_faults                         0                       # Number of TLB faults due to alignment restrictions
system.cpu.itb.domain_faults                        0                       # Number of TLB faults due to domain restrictions
system.cpu.itb.flush_entries                        0                       # Number of entries that have been flushed from TLB
system.cpu.itb.flush_tlb                            0                       # Number of times complete TLB was flushed
system.cpu.itb.flush_tlb_asid                       0                       # Number of times TLB was flushed by ASID
system.cpu.itb.flush_tlb_mva                        0                       # Number of times TLB was flushed by MVA
system.cpu.itb.flush_tlb_mva_asid                   0                       # Number of times TLB was flushed by MVA & ASID
system.cpu.itb.hits                                 0                       # DTB hits
system.cpu.itb.inst_accesses                        0                       # ITB inst accesses
system.cpu.itb.inst_hits                            0                       # ITB inst hits
system.cpu.itb.inst_misses                          0                       # ITB inst misses
system.cpu.itb.misses                               0                       # DTB misses
system.cpu.itb.perms_faults                         0                       # Number of TLB faults due to permissions restrictions
system.cpu.itb.prefetch_faults                      0                       # Number of TLB faults due to prefetch
system.cpu.itb.read_accesses                        0                       # DTB read accesses
system.cpu.itb.read_hits                            0                       # DTB read hits
system.cpu.itb.read_misses                          0                       # DTB read misses
system.cpu.itb.stage2_mmu.stage2_tlb.accesses            0                       # DTB accesses
system.cpu.itb.stage2_mmu.stage2_tlb.align_faults            0                       # Number of TLB faults due to alignment restrictions
system.cpu.itb.stage2_mmu.stage2_tlb.domain_faults            0                       # Number of TLB faults due to domain restrictions
system.cpu.itb.stage2_mmu.stage2_tlb.flush_entries            0                       # Number of entries that have been flushed from TLB
system.cpu.itb.stage2_mmu.stage2_tlb.flush_tlb            0                       # Number of times complete TLB was flushed
system.cpu.itb.stage2_mmu.stage2_tlb.flush_tlb_asid            0                       # Number of times TLB was flushed by ASID
system.cpu.itb.stage2_mmu.stage2_tlb.flush_tlb_mva            0                       # Number of times TLB was flushed by MVA
system.cpu.itb.stage2_mmu.stage2_tlb.flush_tlb_mva_asid            0                       # Number of times TLB was flushed by MVA & ASID
system.cpu.itb.stage2_mmu.stage2_tlb.hits            0                       # DTB hits
system.cpu.itb.stage2_mmu.stage2_tlb.inst_accesses            0                       # ITB inst accesses
system.cpu.itb.stage2_mmu.stage2_tlb.inst_hits            0                       # ITB inst hits
system.cpu.itb.stage2_mmu.stage2_tlb.inst_misses            0                       # ITB inst misses
system.cpu.itb.stage2_mmu.stage2_tlb.misses            0                       # DTB misses
system.cpu.itb.stage2_mmu.stage2_tlb.perms_faults            0                       # Number of TLB faults due to permissions restrictions
system.cpu.itb.stage2_mmu.stage2_tlb.prefetch_faults            0                       # Number of TLB faults due to prefetch
system.cpu.itb.stage2_mmu.stage2_tlb.read_accesses            0                       # DTB read accesses
system.cpu.itb.stage2_mmu.stage2_tlb.read_hits            0                       # DTB read hits
system.cpu.itb.stage2_mmu.stage2_tlb.read_misses            0                       # DTB read misses
system.cpu.itb.stage2_mmu.stage2_tlb.walker.walkRequestOrigin_Requested::Data            0                       # Table walker requests started/completed, data/inst
system.cpu.itb.stage2_mmu.stage2_tlb.walker.walkRequestOrigin_Requested::Inst            0                       # Table walker requests started/completed, data/inst
system.cpu.itb.stage2_mmu.stage2_tlb.walker.walkRequestOrigin_Requested::total            0                       # Table walker requests started/completed, data/inst
system.cpu.itb.stage2_mmu.stage2_tlb.walker.walkRequestOrigin_Completed::Data            0                       # Table walker requests started/completed, data/inst
system.cpu.itb.stage2_mmu.stage2_tlb.walker.walkRequestOrigin_Completed::Inst            0                       # Table walker requests started/completed, data/inst
system.cpu.itb.stage2_mmu.stage2_tlb.walker.walkRequestOrigin_Completed::total            0                       # Table walker requests started/completed, data/inst
system.cpu.itb.stage2_mmu.stage2_tlb.walker.walkRequestOrigin::total            0                       # Table walker requests started/completed, data/inst
system.cpu.itb.stage2_mmu.stage2_tlb.walker.walks            0                       # Table walker walks requested
system.cpu.itb.stage2_mmu.stage2_tlb.write_accesses            0                       # DTB write accesses
system.cpu.itb.stage2_mmu.stage2_tlb.write_hits            0                       # DTB write hits
system.cpu.itb.stage2_mmu.stage2_tlb.write_misses            0                       # DTB write misses
system.cpu.itb.walker.walkRequestOrigin_Requested::Data            0                       # Table walker requests started/completed, data/inst
system.cpu.itb.walker.walkRequestOrigin_Requested::Inst            0                       # Table walker requests started/completed, data/inst
system.cpu.itb.walker.walkRequestOrigin_Requested::total            0                       # Table walker requests started/completed, data/inst
system.cpu.itb.walker.walkRequestOrigin_Completed::Data            0                       # Table walker requests started/completed, data/inst
system.cpu.itb.walker.walkRequestOrigin_Completed::Inst            0                       # Table walker requests started/completed, data/inst
system.cpu.itb.walker.walkRequestOrigin_Completed::total            0                       # Table walker requests started/completed, data/inst
system.cpu.itb.walker.walkRequestOrigin::total            0                       # Table walker requests started/completed, data/inst
system.cpu.itb.walker.walks                         0                       # Table walker walks requested
system.cpu.itb.write_accesses                       0                       # DTB write accesses
system.cpu.itb.write_hits                           0                       # DTB write hits
system.cpu.itb.write_misses                         0                       # DTB write misses
system.cpu.numCycles                        153647959                       # number of cpu cycles simulated
system.cpu.numFetchSuspends                         0                       # Number of times Execute suspended instruction fetching
system.cpu.numWorkItemsCompleted                    0                       # number of work items this cpu completed
system.cpu.numWorkItemsStarted                      0                       # number of work items this cpu started
system.cpu.op_class_0::No_OpClass                   0      0.00%      0.00% # Class of committed instruction
system.cpu.op_class_0::IntAlu                50007205     50.01%     50.01% # Class of committed instruction
system.cpu.op_class_0::IntMult                     85      0.00%     50.01% # Class of committed instruction
system.cpu.op_class_0::IntDiv                       0      0.00%     50.01% # Class of committed instruction
system.cpu.op_class_0::FloatAdd                     0      0.00%     50.01% # Class of committed instruction
system.cpu.op_class_0::FloatCmp                     0      0.00%     50.01% # Class of committed instruction
system.cpu.op_class_0::FloatCvt                     0      0.00%     50.01% # Class of committed instruction
system.cpu.op_class_0::FloatMult                    0      0.00%     50.01% # Class of committed instruction
system.cpu.op_class_0::FloatMultAcc                 0      0.00%     50.01% # Class of committed instruction
system.cpu.op_class_0::FloatDiv                     0      0.00%     50.01% # Class of committed instruction
system.cpu.op_class_0::FloatMisc                    0      0.00%     50.01% # Class of committed instruction
system.cpu.op_class_0::FloatSqrt                    0      0.00%     50.01% # Class of committed instruction
system.cpu.op_class_0::SimdAdd                      0      0.00%     50.01% # Class of committed instruction
system.cpu.op_class_0::SimdAddAcc                   0      0.00%     50.01% # Class of committed instruction
system.cpu.op_class_0::SimdAlu                      0      0.00%     50.01% # Class of committed instruction
system.cpu.op_class_0::SimdCmp                      0      0.00%     50.01% # Class of committed instruction
system.cpu.op_class_0::SimdCvt                      0      0.00%     50.01% # Class of committed instruction
system.cpu.op_class_0::SimdMisc                     0      0.00%     50.01% # Class of committed instruction
system.cpu.op_class_0::SimdMult                     0      0.00%     50.01% # Class of committed instruction
system.cpu.op_class_0::SimdMultAcc                  0      0.00%     50.01% # Class of committed instruction
system.cpu.op_class_0::SimdShift                    0      0.00%     50.01% # Class of committed instruction
system.cpu.op_class_0::SimdShiftAcc                 0      0.00%     50.01% # Class of committed instruction
system.cpu.op_class_0::SimdDiv                      0      0.00%     50.01% # Class of committed instruction
system.cpu.op_class_0::SimdSqrt                     0      0.00%     50.01% # Class of committed instruction
system.cpu.op_class_0::SimdFloatAdd                 0      0.00%     50.01% # Class of committed instruction
system.cpu.op_class_0::SimdFloatAlu                 0      0.00%     50.01% # Class of committed instruction
system.cpu.op_class_0::SimdFloatCmp                 2      0.00%     50.01% # Class of committed instruction
system.cpu.op_class_0::SimdFloatCvt                 0      0.00%     50.01% # Class of committed instruction
system.cpu.op_class_0::SimdFloatDiv                 0      0.00%     50.01% # Class of committed instruction
system.cpu.op_class_0::SimdFloatMisc               23      0.00%     50.01% # Class of committed instruction
system.cpu.op_class_0::SimdFloatMult                0      0.00%     50.01% # Class of committed instruction
system.cpu.op_class_0::SimdFloatMultAcc             0      0.00%     50.01% # Class of committed instruction
system.cpu.op_class_0::SimdFloatSqrt                0      0.00%     50.01% # Class of committed instruction
system.cpu.op_class_0::SimdReduceAdd                0      0.00%     50.01% # Class of committed instruction
system.cpu.op_class_0::SimdReduceAlu                0      0.00%     50.01% # Class of committed instruction
system.cpu.op_class_0::SimdReduceCmp                0      0.00%     50.01% # Class of committed instruction
system.cpu.op_class_0::SimdFloatReduceAdd            0      0.00%     50.01% # Class of committed instruction
system.cpu.op_class_0::SimdFloatReduceCmp            0      0.00%     50.01% # Class of committed instruction
system.cpu.op_class_0::SimdAes                      0      0.00%     50.01% # Class of committed instruction
system.cpu.op_class_0::SimdAesMix                   0      0.00%     50.01% # Class of committed instruction
system.cpu.op_class_0::SimdSha1Hash                 0      0.00%     50.01% # Class of committed instruction
system.cpu.op_class_0::SimdSha1Hash2                0      0.00%     50.01% # Class of committed instruction
system.cpu.op_class_0::SimdSha256Hash               0      0.00%     50.01% # Class of committed instruction
system.cpu.op_class_0::SimdSha256Hash2              0      0.00%     50.01% # Class of committed instruction
system.cpu.op_class_0::SimdShaSigma2                0      0.00%     50.01% # Class of committed instruction
system.cpu.op_class_0::SimdShaSigma3                0      0.00%     50.01% # Class of committed instruction
system.cpu.op_class_0::SimdPredAlu                  0      0.00%     50.01% # Class of committed instruction
system.cpu.op_class_0::MemRead               36900776     36.90%     86.90% # Class of committed instruction
system.cpu.op_class_0::MemWrite              13095633     13.10%    100.00% # Class of committed instruction
system.cpu.op_class_0::FloatMemRead                 0      0.00%    100.00% # Class of committed instruction
system.cpu.op_class_0::FloatMemWrite                0      0.00%    100.00% # Class of committed instruction
system.cpu.op_class_0::IprAccess                    0      0.00%    100.00% # Class of committed instruction
system.cpu.op_class_0::InstPrefetch                 0      0.00%    100.00% # Class of committed instruction
system.cpu.op_class_0::total                100003724                       # Class of committed instruction
system.cpu.tickCycles                       112975149                       # Number of cycles that the object actually ticked
system.cpu.workload.numSyscalls                    18                       # Number of system calls
system.membus.snoop_filter.hit_multi_requests            0                       # Number of requests hitting in the snoop filter with multiple (>1) holders of the requested data.
system.membus.snoop_filter.hit_multi_snoops            0                       # Number of snoops hitting in the snoop filter with multiple (>1) holders of the requested data.
system.membus.snoop_filter.hit_single_requests        91063                       # Number of requests hitting in the snoop filter with a single holder of the requested data.
system.membus.snoop_filter.hit_single_snoops            0                       # Number of snoops hitting in the snoop filter with a single holder of the requested data.
system.membus.snoop_filter.tot_requests        184218                       # Total number of requests made to the snoop filter.
system.membus.snoop_filter.tot_snoops               0                       # Total number of snoops made to the snoop filter.
system.tol2bus.snoop_filter.hit_multi_requests           68                       # Number of requests hitting in the snoop filter with multiple (>1) holders of the requested data.
system.tol2bus.snoop_filter.hit_multi_snoops            1                       # Number of snoops hitting in the snoop filter with multiple (>1) holders of the requested data.
system.tol2bus.snoop_filter.hit_single_requests        93349                       # Number of requests hitting in the snoop filter with a single holder of the requested data.
system.tol2bus.snoop_filter.hit_single_snoops           32                       # Number of snoops hitting in the snoop filter with a single holder of the requested data.
system.tol2bus.snoop_filter.tot_requests       186792                       # Total number of requests made to the snoop filter.
system.tol2bus.snoop_filter.tot_snoops             33                       # Total number of snoops made to the snoop filter.
system.membus.pwrStateResidencyTicks::UNDEFINED  76823979500                       # Cumulative time (in ticks) in various power states
system.membus.trans_dist::ReadResp                144                       # Transaction distribution
system.membus.trans_dist::WritebackDirty        90956                       # Transaction distribution
system.membus.trans_dist::CleanEvict              107                       # Transaction distribution
system.membus.trans_dist::ReadExReq             93000                       # Transaction distribution
system.membus.trans_dist::ReadExResp            93000                       # Transaction distribution
system.membus.trans_dist::ReadSharedReq           144                       # Transaction distribution
system.membus.pkt_count_system.l2.mem_side::system.mem_ctrls.port       277351                       # Packet count per connected master and slave (bytes)
system.membus.pkt_count::total                 277351                       # Packet count per connected master and slave (bytes)
system.membus.pkt_size_system.l2.mem_side::system.mem_ctrls.port    188518400                       # Cumulative packet size per connected master and slave (bytes)
system.membus.pkt_size::total               188518400                       # Cumulative packet size per connected master and slave (bytes)
system.membus.snoops                                0                       # Total snoops (count)
system.membus.snoopTraffic                          0                       # Total snoop traffic (bytes)
system.membus.snoop_fanout::samples             93155                       # Request fanout histogram
system.membus.snoop_fanout::mean                    0                       # Request fanout histogram
system.membus.snoop_fanout::stdev                   0                       # Request fanout histogram
system.membus.snoop_fanout::underflows              0      0.00%      0.00% # Request fanout histogram
system.membus.snoop_fanout::0                   93155    100.00%    100.00% # Request fanout histogram
system.membus.snoop_fanout::1                       0      0.00%    100.00% # Request fanout histogram
system.membus.snoop_fanout::overflows               0      0.00%    100.00% # Request fanout histogram
system.membus.snoop_fanout::min_value               0                       # Request fanout histogram
system.membus.snoop_fanout::max_value               0                       # Request fanout histogram
system.membus.snoop_fanout::total               93155                       # Request fanout histogram
system.membus.respLayer1.occupancy         6103451000                       # Layer occupancy (ticks)
system.membus.respLayer1.utilization              7.9                       # Layer utilization (%)
system.membus.reqLayer0.occupancy          6014742500                       # Layer occupancy (ticks)
system.membus.reqLayer0.utilization               7.8                       # Layer utilization (%)
system.tol2bus.pwrStateResidencyTicks::UNDEFINED  76823979500                       # Cumulative time (in ticks) in various power states
system.tol2bus.trans_dist::ReadResp               444                       # Transaction distribution
system.tol2bus.trans_dist::WritebackDirty       183901                       # Transaction distribution
system.tol2bus.trans_dist::WritebackClean          347                       # Transaction distribution
system.tol2bus.trans_dist::CleanEvict             196                       # Transaction distribution
system.tol2bus.trans_dist::ReadExReq            93000                       # Transaction distribution
system.tol2bus.trans_dist::ReadExResp           93000                       # Transaction distribution
system.tol2bus.trans_dist::ReadCleanReq           379                       # Transaction distribution
system.tol2bus.trans_dist::ReadSharedReq           65                       # Transaction distribution
system.tol2bus.pkt_count_system.cpu.icache.mem_side::system.l2.cpu_side         1105                       # Packet count per connected master and slave (bytes)
system.tol2bus.pkt_count_system.cpu.dcache.mem_side::system.l2.cpu_side       279131                       # Packet count per connected master and slave (bytes)
system.tol2bus.pkt_count::total                280236                       # Packet count per connected master and slave (bytes)
system.tol2bus.pkt_size_system.cpu.icache.mem_side::system.l2.cpu_side       743424                       # Cumulative packet size per connected master and slave (bytes)
system.tol2bus.pkt_size_system.cpu.dcache.mem_side::system.l2.cpu_side    190474240                       # Cumulative packet size per connected master and slave (bytes)
system.tol2bus.pkt_size::total              191217664                       # Cumulative packet size per connected master and slave (bytes)
system.tol2bus.snoops                           91096                       # Total snoops (count)
system.tol2bus.snoopTraffic                  93138944                       # Total snoop traffic (bytes)
system.tol2bus.snoop_fanout::samples           184540                       # Request fanout histogram
system.tol2bus.snoop_fanout::mean            0.000558                       # Request fanout histogram
system.tol2bus.snoop_fanout::stdev           0.023847                       # Request fanout histogram
system.tol2bus.snoop_fanout::underflows             0      0.00%      0.00% # Request fanout histogram
system.tol2bus.snoop_fanout::0                 184438     99.94%     99.94% # Request fanout histogram
system.tol2bus.snoop_fanout::1                    101      0.05%    100.00% # Request fanout histogram
system.tol2bus.snoop_fanout::2                      1      0.00%    100.00% # Request fanout histogram
system.tol2bus.snoop_fanout::overflows              0      0.00%    100.00% # Request fanout histogram
system.tol2bus.snoop_fanout::min_value              0                       # Request fanout histogram
system.tol2bus.snoop_fanout::max_value              2                       # Request fanout histogram
system.tol2bus.snoop_fanout::total             184540                       # Request fanout histogram
system.tol2bus.reqLayer0.occupancy         1586068000                       # Layer occupancy (ticks)
system.tol2bus.reqLayer0.utilization              2.1                       # Layer utilization (%)
system.tol2bus.respLayer1.occupancy        1535572999                       # Layer occupancy (ticks)
system.tol2bus.respLayer1.utilization             2.0                       # Layer utilization (%)
system.tol2bus.respLayer0.occupancy           6253500                       # Layer occupancy (ticks)
system.tol2bus.respLayer0.utilization             0.0                       # Layer utilization (%)
system.voltage_domain.voltage                       1                       # Voltage in Volts
system.clk_domain.clock                          1000                       # Clock period in ticks
system.l2.pwrStateResidencyTicks::UNDEFINED  76823979500                       # Cumulative time (in ticks) in various power states
system.l2.demand_hits::.cpu.inst                  262                       # number of demand (read+write) hits
system.l2.demand_hits::.cpu.data                   37                       # number of demand (read+write) hits
system.l2.demand_hits::total                      299                       # number of demand (read+write) hits
system.l2.overall_hits::.cpu.inst                 262                       # number of overall hits
system.l2.overall_hits::.cpu.data                  37                       # number of overall hits
system.l2.overall_hits::total                     299                       # number of overall hits
system.l2.demand_misses::.cpu.inst                117                       # number of demand (read+write) misses
system.l2.demand_misses::.cpu.data              93028                       # number of demand (read+write) misses
system.l2.demand_misses::total                  93145                       # number of demand (read+write) misses
system.l2.overall_misses::.cpu.inst               117                       # number of overall misses
system.l2.overall_misses::.cpu.data             93028                       # number of overall misses
system.l2.overall_misses::total                 93145                       # number of overall misses
system.l2.demand_miss_latency::.cpu.inst     19879000                       # number of demand (read+write) miss cycles
system.l2.demand_miss_latency::.cpu.data  15320308500                       # number of demand (read+write) miss cycles
system.l2.demand_miss_latency::total      15340187500                       # number of demand (read+write) miss cycles
system.l2.overall_miss_latency::.cpu.inst     19879000                       # number of overall miss cycles
system.l2.overall_miss_latency::.cpu.data  15320308500                       # number of overall miss cycles
system.l2.overall_miss_latency::total     15340187500                       # number of overall miss cycles
system.l2.demand_accesses::.cpu.inst              379                       # number of demand (read+write) accesses
system.l2.demand_accesses::.cpu.data            93065                       # number of demand (read+write) accesses
system.l2.demand_accesses::total                93444                       # number of demand (read+write) accesses
system.l2.overall_accesses::.cpu.inst             379                       # number of overall (read+write) accesses
system.l2.overall_accesses::.cpu.data           93065                       # number of overall (read+write) accesses
system.l2.overall_accesses::total               93444                       # number of overall (read+write) accesses
system.l2.demand_miss_rate::.cpu.inst        0.308707                       # miss rate for demand accesses
system.l2.demand_miss_rate::.cpu.data        0.999602                       # miss rate for demand accesses
system.l2.demand_miss_rate::total            0.996800                       # miss rate for demand accesses
system.l2.overall_miss_rate::.cpu.inst       0.308707                       # miss rate for overall accesses
system.l2.overall_miss_rate::.cpu.data       0.999602                       # miss rate for overall accesses
system.l2.overall_miss_rate::total           0.996800                       # miss rate for overall accesses
system.l2.demand_avg_miss_latency::.cpu.inst 169905.982906                       # average overall miss latency
system.l2.demand_avg_miss_latency::.cpu.data 164684.917444                       # average overall miss latency
system.l2.demand_avg_miss_latency::total 164691.475656                       # average overall miss latency
system.l2.overall_avg_miss_latency::.cpu.inst 169905.982906                       # average overall miss latency
system.l2.overall_avg_miss_latency::.cpu.data 164684.917444                       # average overall miss latency
system.l2.overall_avg_miss_latency::total 164691.475656                       # average overall miss latency
system.l2.blocked_cycles::no_mshrs                  0                       # number of cycles access was blocked
system.l2.blocked_cycles::no_targets                0                       # number of cycles access was blocked
system.l2.blocked::no_mshrs                         0                       # number of cycles access was blocked
system.l2.blocked::no_targets                       0                       # number of cycles access was blocked
system.l2.avg_blocked_cycles::no_mshrs            nan                       # average number of cycles each access was blocked
system.l2.avg_blocked_cycles::no_targets          nan                       # average number of cycles each access was blocked
system.l2.writebacks::.writebacks               90956                       # number of writebacks
system.l2.writebacks::total                     90956                       # number of writebacks
system.l2.demand_mshr_hits::.cpu.data               1                       # number of demand (read+write) MSHR hits
system.l2.demand_mshr_hits::total                   1                       # number of demand (read+write) MSHR hits
system.l2.overall_mshr_hits::.cpu.data              1                       # number of overall MSHR hits
system.l2.overall_mshr_hits::total                  1                       # number of overall MSHR hits
system.l2.demand_mshr_misses::.cpu.inst           117                       # number of demand (read+write) MSHR misses
system.l2.demand_mshr_misses::.cpu.data         93027                       # number of demand (read+write) MSHR misses
system.l2.demand_mshr_misses::total             93144                       # number of demand (read+write) MSHR misses
system.l2.overall_mshr_misses::.cpu.inst          117                       # number of overall MSHR misses
system.l2.overall_mshr_misses::.cpu.data        93027                       # number of overall MSHR misses
system.l2.overall_mshr_misses::total            93144                       # number of overall MSHR misses
system.l2.demand_mshr_miss_latency::.cpu.inst     18709000                       # number of demand (read+write) MSHR miss cycles
system.l2.demand_mshr_miss_latency::.cpu.data  14389880000                       # number of demand (read+write) MSHR miss cycles
system.l2.demand_mshr_miss_latency::total  14408589000                       # number of demand (read+write) MSHR miss cycles
system.l2.overall_mshr_miss_latency::.cpu.inst     18709000                       # number of overall MSHR miss cycles
system.l2.overall_mshr_miss_latency::.cpu.data  14389880000                       # number of overall MSHR miss cycles
system.l2.overall_mshr_miss_latency::total  14408589000                       # number of overall MSHR miss cycles
system.l2.demand_mshr_miss_rate::.cpu.inst     0.308707                       # mshr miss rate for demand accesses
system.l2.demand_mshr_miss_rate::.cpu.data     0.999592                       # mshr miss rate for demand accesses
system.l2.demand_mshr_miss_rate::total       0.996790                       # mshr miss rate for demand accesses
system.l2.overall_mshr_miss_rate::.cpu.inst     0.308707                       # mshr miss rate for overall accesses
system.l2.overall_mshr_miss_rate::.cpu.data     0.999592                       # mshr miss rate for overall accesses
system.l2.overall_mshr_miss_rate::total      0.996790                       # mshr miss rate for overall accesses
system.l2.demand_avg_mshr_miss_latency::.cpu.inst 159905.982906                       # average overall mshr miss latency
system.l2.demand_avg_mshr_miss_latency::.cpu.data 154684.983929                       # average overall mshr miss latency
system.l2.demand_avg_mshr_miss_latency::total 154691.542128                       # average overall mshr miss latency
system.l2.overall_avg_mshr_miss_latency::.cpu.inst 159905.982906                       # average overall mshr miss latency
system.l2.overall_avg_mshr_miss_latency::.cpu.data 154684.983929                       # average overall mshr miss latency
system.l2.overall_avg_mshr_miss_latency::total 154691.542128                       # average overall mshr miss latency
system.l2.replacements                          91096                       # number of replacements
system.l2.WritebackDirty_hits::.writebacks        92945                       # number of WritebackDirty hits
system.l2.WritebackDirty_hits::total            92945                       # number of WritebackDirty hits
system.l2.WritebackDirty_accesses::.writebacks        92945                       # number of WritebackDirty accesses(hits+misses)
system.l2.WritebackDirty_accesses::total        92945                       # number of WritebackDirty accesses(hits+misses)
system.l2.WritebackClean_hits::.writebacks          294                       # number of WritebackClean hits
system.l2.WritebackClean_hits::total              294                       # number of WritebackClean hits
system.l2.WritebackClean_accesses::.writebacks          294                       # number of WritebackClean accesses(hits+misses)
system.l2.WritebackClean_accesses::total          294                       # number of WritebackClean accesses(hits+misses)
system.l2.ReadExReq_misses::.cpu.data           93000                       # number of ReadExReq misses
system.l2.ReadExReq_misses::total               93000                       # number of ReadExReq misses
system.l2.ReadExReq_miss_latency::.cpu.data  15315357000                       # number of ReadExReq miss cycles
system.l2.ReadExReq_miss_latency::total   15315357000                       # number of ReadExReq miss cycles
system.l2.ReadExReq_accesses::.cpu.data         93000                       # number of ReadExReq accesses(hits+misses)
system.l2.ReadExReq_accesses::total             93000                       # number of ReadExReq accesses(hits+misses)
system.l2.ReadExReq_miss_rate::.cpu.data            1                       # miss rate for ReadExReq accesses
system.l2.ReadExReq_miss_rate::total                1                       # miss rate for ReadExReq accesses
system.l2.ReadExReq_avg_miss_latency::.cpu.data 164681.258065                       # average ReadExReq miss latency
system.l2.ReadExReq_avg_miss_latency::total 164681.258065                       # average ReadExReq miss latency
system.l2.ReadExReq_mshr_misses::.cpu.data        93000                       # number of ReadExReq MSHR misses
system.l2.ReadExReq_mshr_misses::total          93000                       # number of ReadExReq MSHR misses
system.l2.ReadExReq_mshr_miss_latency::.cpu.data  14385357000                       # number of ReadExReq MSHR miss cycles
system.l2.ReadExReq_mshr_miss_latency::total  14385357000                       # number of ReadExReq MSHR miss cycles
system.l2.ReadExReq_mshr_miss_rate::.cpu.data            1                       # mshr miss rate for ReadExReq accesses
system.l2.ReadExReq_mshr_miss_rate::total            1                       # mshr miss rate for ReadExReq accesses
system.l2.ReadExReq_avg_mshr_miss_latency::.cpu.data 154681.258065                       # average ReadExReq mshr miss latency
system.l2.ReadExReq_avg_mshr_miss_latency::total 154681.258065                       # average ReadExReq mshr miss latency
system.l2.ReadCleanReq_hits::.cpu.inst            262                       # number of ReadCleanReq hits
system.l2.ReadCleanReq_hits::total                262                       # number of ReadCleanReq hits
system.l2.ReadCleanReq_misses::.cpu.inst          117                       # number of ReadCleanReq misses
system.l2.ReadCleanReq_misses::total              117                       # number of ReadCleanReq misses
system.l2.ReadCleanReq_miss_latency::.cpu.inst     19879000                       # number of ReadCleanReq miss cycles
system.l2.ReadCleanReq_miss_latency::total     19879000                       # number of ReadCleanReq miss cycles
system.l2.ReadCleanReq_accesses::.cpu.inst          379                       # number of ReadCleanReq accesses(hits+misses)
system.l2.ReadCleanReq_accesses::total            379                       # number of ReadCleanReq accesses(hits+misses)
system.l2.ReadCleanReq_miss_rate::.cpu.inst     0.308707                       # miss rate for ReadCleanReq accesses
system.l2.ReadCleanReq_miss_rate::total      0.308707                       # miss rate for ReadCleanReq accesses
system.l2.ReadCleanReq_avg_miss_latency::.cpu.inst 169905.982906                       # average ReadCleanReq miss latency
system.l2.ReadCleanReq_avg_miss_latency::total 169905.982906                       # average ReadCleanReq miss latency
system.l2.ReadCleanReq_mshr_misses::.cpu.inst          117                       # number of ReadCleanReq MSHR misses
system.l2.ReadCleanReq_mshr_misses::total          117                       # number of ReadCleanReq MSHR misses
system.l2.ReadCleanReq_mshr_miss_latency::.cpu.inst     18709000                       # number of ReadCleanReq MSHR miss cycles
system.l2.ReadCleanReq_mshr_miss_latency::total     18709000                       # number of ReadCleanReq MSHR miss cycles
system.l2.ReadCleanReq_mshr_miss_rate::.cpu.inst     0.308707                       # mshr miss rate for ReadCleanReq accesses
system.l2.ReadCleanReq_mshr_miss_rate::total     0.308707                       # mshr miss rate for ReadCleanReq accesses
system.l2.ReadCleanReq_avg_mshr_miss_latency::.cpu.inst 159905.982906                       # average ReadCleanReq mshr miss latency
system.l2.ReadCleanReq_avg_mshr_miss_latency::total 159905.982906                       # average ReadCleanReq mshr miss latency
system.l2.ReadSharedReq_hits::.cpu.data            37                       # number of ReadSharedReq hits
system.l2.ReadSharedReq_hits::total                37                       # number of ReadSharedReq hits
system.l2.ReadSharedReq_misses::.cpu.data           28                       # number of ReadSharedReq misses
system.l2.ReadSharedReq_misses::total              28                       # number of ReadSharedReq misses
system.l2.ReadSharedReq_miss_latency::.cpu.data      4951500                       # number of ReadSharedReq miss cycles
system.l2.ReadSharedReq_miss_latency::total      4951500                       # number of ReadSharedReq miss cycles
system.l2.ReadSharedReq_accesses::.cpu.data           65                       # number of ReadSharedReq accesses(hits+misses)
system.l2.ReadSharedReq_accesses::total            65                       # number of ReadSharedReq accesses(hits+misses)
system.l2.ReadSharedReq_miss_rate::.cpu.data     0.430769                       # miss rate for ReadSharedReq accesses
system.l2.ReadSharedReq_miss_rate::total     0.430769                       # miss rate for ReadSharedReq accesses
system.l2.ReadSharedReq_avg_miss_latency::.cpu.data 176839.285714                       # average ReadSharedReq miss latency
system.l2.ReadSharedReq_avg_miss_latency::total 176839.285714                       # average ReadSharedReq miss latency
system.l2.ReadSharedReq_mshr_hits::.cpu.data            1                       # number of ReadSharedReq MSHR hits
system.l2.ReadSharedReq_mshr_hits::total            1                       # number of ReadSharedReq MSHR hits
system.l2.ReadSharedReq_mshr_misses::.cpu.data           27                       # number of ReadSharedReq MSHR misses
system.l2.ReadSharedReq_mshr_misses::total           27                       # number of ReadSharedReq MSHR misses
system.l2.ReadSharedReq_mshr_miss_latency::.cpu.data      4523000                       # number of ReadSharedReq MSHR miss cycles
system.l2.ReadSharedReq_mshr_miss_latency::total      4523000                       # number of ReadSharedReq MSHR miss cycles
system.l2.ReadSharedReq_mshr_miss_rate::.cpu.data     0.415385                       # mshr miss rate for ReadSharedReq accesses
system.l2.ReadSharedReq_mshr_miss_rate::total     0.415385                       # mshr miss rate for ReadSharedReq accesses
system.l2.ReadSharedReq_avg_mshr_miss_latency::.cpu.data 167518.518519                       # average ReadSharedReq mshr miss latency
system.l2.ReadSharedReq_avg_mshr_miss_latency::total 167518.518519                       # average ReadSharedReq mshr miss latency
system.l2.tags.pwrStateResidencyTicks::UNDEFINED  76823979500                       # Cumulative time (in ticks) in various power states
system.l2.tags.tagsinuse                  2027.565636                       # Cycle average of tags in use
system.l2.tags.total_refs                      186723                       # Total number of references to valid blocks.
system.l2.tags.sampled_refs                     93144                       # Sample count of references to valid blocks.
system.l2.tags.avg_refs                      2.004670                       # Average number of references to valid blocks.
system.l2.tags.warmup_cycle                    152000                       # Cycle when the warmup percentage was hit.
system.l2.tags.occ_blocks::.cpu.inst         2.380386                       # Average occupied blocks per requestor
system.l2.tags.occ_blocks::.cpu.data      2025.185250                       # Average occupied blocks per requestor
system.l2.tags.occ_percent::.cpu.inst        0.001162                       # Average percentage of cache occupancy
system.l2.tags.occ_percent::.cpu.data        0.988860                       # Average percentage of cache occupancy
system.l2.tags.occ_percent::total            0.990022                       # Average percentage of cache occupancy
system.l2.tags.occ_task_id_blocks::1024          2048                       # Occupied blocks per task id
system.l2.tags.age_task_id_blocks_1024::0           12                       # Occupied blocks per task id
system.l2.tags.age_task_id_blocks_1024::1          109                       # Occupied blocks per task id
system.l2.tags.age_task_id_blocks_1024::2         1090                       # Occupied blocks per task id
system.l2.tags.age_task_id_blocks_1024::3          837                       # Occupied blocks per task id
system.l2.tags.occ_task_id_percent::1024            1                       # Percentage of cache occupancy per task id
system.l2.tags.tag_accesses                   1586936                       # Number of tag accesses
system.l2.tags.data_accesses                  1586936                       # Number of data accesses
system.cpu_voltage_domain.voltage                   1                       # Voltage in Volts
system.mem_ctrls.pwrStateResidencyTicks::UNDEFINED  76823979500                       # Cumulative time (in ticks) in various power states
system.mem_ctrls.bytes_read::.cpu.inst         119808                       # Number of bytes read from this memory
system.mem_ctrls.bytes_read::.cpu.data       95259648                       # Number of bytes read from this memory
system.mem_ctrls.bytes_read::total           95379456                       # Number of bytes read from this memory
system.mem_ctrls.bytes_inst_read::.cpu.inst       119808                       # Number of instructions bytes read from this memory
system.mem_ctrls.bytes_inst_read::total        119808                       # Number of instructions bytes read from this memory
system.mem_ctrls.bytes_written::.writebacks     93138944                       # Number of bytes written to this memory
system.mem_ctrls.bytes_written::total        93138944                       # Number of bytes written to this memory
system.mem_ctrls.num_reads::.cpu.inst             117                       # Number of read requests responded to by this memory
system.mem_ctrls.num_reads::.cpu.data           93027                       # Number of read requests responded to by this memory
system.mem_ctrls.num_reads::total               93144                       # Number of read requests responded to by this memory
system.mem_ctrls.num_writes::.writebacks        90956                       # Number of write requests responded to by this memory
system.mem_ctrls.num_writes::total              90956                       # Number of write requests responded to by this memory
system.mem_ctrls.bw_read::.cpu.inst           1559513                       # Total read bandwidth from this memory (bytes/s)
system.mem_ctrls.bw_read::.cpu.data        1239972839                       # Total read bandwidth from this memory (bytes/s)
system.mem_ctrls.bw_read::total            1241532353                       # Total read bandwidth from this memory (bytes/s)
system.mem_ctrls.bw_inst_read::.cpu.inst      1559513                       # Instruction read bandwidth from this memory (bytes/s)
system.mem_ctrls.bw_inst_read::total          1559513                       # Instruction read bandwidth from this memory (bytes/s)
system.mem_ctrls.bw_write::.writebacks     1212368125                       # Write bandwidth from this memory (bytes/s)
system.mem_ctrls.bw_write::total           1212368125                       # Write bandwidth from this memory (bytes/s)
system.mem_ctrls.bw_total::.writebacks     1212368125                       # Total bandwidth to/from this memory (bytes/s)
system.mem_ctrls.bw_total::.cpu.inst          1559513                       # Total bandwidth to/from this memory (bytes/s)
system.mem_ctrls.bw_total::.cpu.data       1239972839                       # Total bandwidth to/from this memory (bytes/s)
system.mem_ctrls.bw_total::total           2453900478                       # Total bandwidth to/from this memory (bytes/s)
system.mem_ctrls.avgPriority_.writebacks::samples   1455296.00                       # Average QoS priority value for accepted requests
system.mem_ctrls.avgPriority_.cpu.inst::samples      1872.00                       # Average QoS priority value for accepted requests
system.mem_ctrls.avgPriority_.cpu.data::samples   1488432.00                       # Average QoS priority value for accepted requests
system.mem_ctrls.priorityMinLatency      0.000000018750                       # per QoS priority minimum request to response latency (s)
system.mem_ctrls.priorityMaxLatency      0.000203448750                       # per QoS priority maximum request to response latency (s)
system.mem_ctrls.numReadWriteTurnArounds        45477                       # Number of turnarounds from READ to WRITE
system.mem_ctrls.numWriteReadTurnArounds        45477                       # Number of turnarounds from WRITE to READ
system.mem_ctrls.numStayReadState             1691842                       # Number of times bus staying in READ state
system.mem_ctrls.numStayWriteState            1411725                       # Number of times bus staying in WRITE state
system.mem_ctrls.readReqs                       93144                       # Number of read requests accepted
system.mem_ctrls.writeReqs                      90956                       # Number of write requests accepted
system.mem_ctrls.readBursts                   1490304                       # Number of DRAM read bursts, including those serviced by the write queue
system.mem_ctrls.writeBursts                  1455296                       # Number of DRAM write bursts, including those merged in the write queue
system.mem_ctrls.servicedByWrQ                      0                       # Number of DRAM read bursts serviced by the write queue
system.mem_ctrls.mergedWrBursts                     0                       # Number of DRAM write bursts merged with an existing one
system.mem_ctrls.neitherReadNorWriteReqs            0                       # Number of requests that are neither read nor write
system.mem_ctrls.perBankRdBursts::0             93296                       # Per bank write bursts
system.mem_ctrls.perBankRdBursts::1             93008                       # Per bank write bursts
system.mem_ctrls.perBankRdBursts::2             93072                       # Per bank write bursts
system.mem_ctrls.perBankRdBursts::3             93088                       # Per bank write bursts
system.mem_ctrls.perBankRdBursts::4             93216                       # Per bank write bursts
system.mem_ctrls.perBankRdBursts::5             93200                       # Per bank write bursts
system.mem_ctrls.perBankRdBursts::6             93120                       # Per bank write bursts
system.mem_ctrls.perBankRdBursts::7             93120                       # Per bank write bursts
system.mem_ctrls.perBankRdBursts::8             93296                       # Per bank write bursts
system.mem_ctrls.perBankRdBursts::9             93136                       # Per bank write bursts
system.mem_ctrls.perBankRdBursts::10            93152                       # Per bank write bursts
system.mem_ctrls.perBankRdBursts::11            93072                       # Per bank write bursts
system.mem_ctrls.perBankRdBursts::12            93152                       # Per bank write bursts
system.mem_ctrls.perBankRdBursts::13            93120                       # Per bank write bursts
system.mem_ctrls.perBankRdBursts::14            93120                       # Per bank write bursts
system.mem_ctrls.perBankRdBursts::15            93136                       # Per bank write bursts
system.mem_ctrls.perBankWrBursts::0             90992                       # Per bank write bursts
system.mem_ctrls.perBankWrBursts::1             90912                       # Per bank write bursts
system.mem_ctrls.perBankWrBursts::2             90944                       # Per bank write bursts
system.mem_ctrls.perBankWrBursts::3             90960                       # Per bank write bursts
system.mem_ctrls.perBankWrBursts::4             91024                       # Per bank write bursts
system.mem_ctrls.perBankWrBursts::5             91008                       # Per bank write bursts
system.mem_ctrls.perBankWrBursts::6             91008                       # Per bank write bursts
system.mem_ctrls.perBankWrBursts::7             91008                       # Per bank write bursts
system.mem_ctrls.perBankWrBursts::8             91008                       # Per bank write bursts
system.mem_ctrls.perBankWrBursts::9             91008                       # Per bank write bursts
system.mem_ctrls.perBankWrBursts::10            90945                       # Per bank write bursts
system.mem_ctrls.perBankWrBursts::11            90880                       # Per bank write bursts
system.mem_ctrls.perBankWrBursts::12            90880                       # Per bank write bursts
system.mem_ctrls.perBankWrBursts::13            90880                       # Per bank write bursts
system.mem_ctrls.perBankWrBursts::14            90880                       # Per bank write bursts
system.mem_ctrls.perBankWrBursts::15            90928                       # Per bank write bursts
system.mem_ctrls.avgRdQLen                      16.00                       # Average read queue length when enqueuing
system.mem_ctrls.avgWrQLen                      38.22                       # Average write queue length when enqueuing
system.mem_ctrls.totQLat                  80508454000                       # Total ticks spent queuing
system.mem_ctrls.totBusLat                 7451520000                       # Total ticks spent in databus transfers
system.mem_ctrls.totMemAccLat            108451654000                       # Total ticks spent from burst creation until serviced by the DRAM
system.mem_ctrls.avgQLat                     54021.50                       # Average queueing delay per DRAM burst
system.mem_ctrls.avgBusLat                    5000.00                       # Average bus latency per DRAM burst
system.mem_ctrls.avgMemAccLat                72771.50                       # Average memory access latency per DRAM burst
system.mem_ctrls.numRdRetry                        11                       # Number of times read queue was full causing retry
system.mem_ctrls.numWrRetry                         0                       # Number of times write queue was full causing retry
system.mem_ctrls.readRowHits                  1395780                       # Number of row buffer hits during reads
system.mem_ctrls.writeRowHits                 1352939                       # Number of row buffer hits during writes
system.mem_ctrls.readRowHitRate                 93.66                       # Row buffer hit rate for reads
system.mem_ctrls.writeRowHitRate                92.97                       # Row buffer hit rate for writes
system.mem_ctrls.readPktSize::0                     0                       # Read request sizes (log2)
system.mem_ctrls.readPktSize::1                     0                       # Read request sizes (log2)
system.mem_ctrls.readPktSize::2                     0                       # Read request sizes (log2)
system.mem_ctrls.readPktSize::3                     0                       # Read request sizes (log2)
system.mem_ctrls.readPktSize::4                     0                       # Read request sizes (log2)
system.mem_ctrls.readPktSize::5                     0                       # Read request sizes (log2)
system.mem_ctrls.readPktSize::6               1490304                       # Read request sizes (log2)
system.mem_ctrls.writePktSize::0                    0                       # Write request sizes (log2)
system.mem_ctrls.writePktSize::1                    0                       # Write request sizes (log2)
system.mem_ctrls.writePktSize::2                    0                       # Write request sizes (log2)
system.mem_ctrls.writePktSize::3                    0                       # Write request sizes (log2)
system.mem_ctrls.writePktSize::4                    0                       # Write request sizes (log2)
system.mem_ctrls.writePktSize::5                    0                       # Write request sizes (log2)
system.mem_ctrls.writePktSize::6              1455296                       # Write request sizes (log2)
system.mem_ctrls.rdQLenPdf::0                   93128                       # What read queue length does an incoming req see
system.mem_ctrls.rdQLenPdf::1                   93128                       # What read queue length does an incoming req see
system.mem_ctrls.rdQLenPdf::2                   93128                       # What read queue length does an incoming req see
system.mem_ctrls.rdQLenPdf::3                   93128                       # What read queue length does an incoming req see
system.mem_ctrls.rdQLenPdf::4                   93128                       # What read queue length does an incoming req see
system.mem_ctrls.rdQLenPdf::5                   93129                       # What read queue length does an incoming req see
system.mem_ctrls.rdQLenPdf::6                   93130                       # What read queue length does an incoming req see
system.mem_ctrls.rdQLenPdf::7                   93130                       # What read queue length does an incoming req see
system.mem_ctrls.rdQLenPdf::8                   93130                       # What read queue length does an incoming req see
system.mem_ctrls.rdQLenPdf::9                   93130                       # What read queue length does an incoming req see
system.mem_ctrls.rdQLenPdf::10                  93130                       # What read queue length does an incoming req see
system.mem_ctrls.rdQLenPdf::11                  93131                       # What read queue length does an incoming req see
system.mem_ctrls.rdQLenPdf::12                  93131                       # What read queue length does an incoming req see
system.mem_ctrls.rdQLenPdf::13                  93131                       # What read queue length does an incoming req see
system.mem_ctrls.rdQLenPdf::14                  93131                       # What read queue length does an incoming req see
system.mem_ctrls.rdQLenPdf::15                  93131                       # What read queue length does an incoming req see
system.mem_ctrls.rdQLenPdf::16                     16                       # What read queue length does an incoming req see
system.mem_ctrls.rdQLenPdf::17                     16                       # What read queue length does an incoming req see
system.mem_ctrls.rdQLenPdf::18                     16                       # What read queue length does an incoming req see
system.mem_ctrls.rdQLenPdf::19                     16                       # What read queue length does an incoming req see
system.mem_ctrls.rdQLenPdf::20                     16                       # What read queue length does an incoming req see
system.mem_ctrls.rdQLenPdf::21                     15                       # What read queue length does an incoming req see
system.mem_ctrls.rdQLenPdf::22                     14                       # What read queue length does an incoming req see
system.mem_ctrls.rdQLenPdf::23                     14                       # What read queue length does an incoming req see
system.mem_ctrls.rdQLenPdf::24                     14                       # What read queue length does an incoming req see
system.mem_ctrls.rdQLenPdf::25                     14                       # What read queue length does an incoming req see
system.mem_ctrls.rdQLenPdf::26                     14                       # What read queue length does an incoming req see
system.mem_ctrls.rdQLenPdf::27                     13                       # What read queue length does an incoming req see
system.mem_ctrls.rdQLenPdf::28                     13                       # What read queue length does an incoming req see
system.mem_ctrls.rdQLenPdf::29                     13                       # What read queue length does an incoming req see
system.mem_ctrls.rdQLenPdf::30                     13                       # What read queue length does an incoming req see
system.mem_ctrls.rdQLenPdf::31                     13                       # What read queue length does an incoming req see
system.mem_ctrls.wrQLenPdf::0                       1                       # What write queue length does an incoming req see
system.mem_ctrls.wrQLenPdf::1                       1                       # What write queue length does an incoming req see
system.mem_ctrls.wrQLenPdf::2                       1                       # What write queue length does an incoming req see
system.mem_ctrls.wrQLenPdf::3                       1                       # What write queue length does an incoming req see
system.mem_ctrls.wrQLenPdf::4                       1                       # What write queue length does an incoming req see
system.mem_ctrls.wrQLenPdf::5                       1                       # What write queue length does an incoming req see
system.mem_ctrls.wrQLenPdf::6                       1                       # What write queue length does an incoming req see
system.mem_ctrls.wrQLenPdf::7                       1                       # What write queue length does an incoming req see
system.mem_ctrls.wrQLenPdf::8                       1                       # What write queue length does an incoming req see
system.mem_ctrls.wrQLenPdf::9                       1                       # What write queue length does an incoming req see
system.mem_ctrls.wrQLenPdf::10                      1                       # What write queue length does an incoming req see
system.mem_ctrls.wrQLenPdf::11                      1                       # What write queue length does an incoming req see
system.mem_ctrls.wrQLenPdf::12                      1                       # What write queue length does an incoming req see
system.mem_ctrls.wrQLenPdf::13                      1                       # What write queue length does an incoming req see
system.mem_ctrls.wrQLenPdf::14                      1                       # What write queue length does an incoming req see
system.mem_ctrls.wrQLenPdf::15                  45478                       # What write queue length does an incoming req see
system.mem_ctrls.wrQLenPdf::16                  45478                       # What write queue length does an incoming req see
system.mem_ctrls.wrQLenPdf::17                  45478                       # What write queue length does an incoming req see
system.mem_ctrls.wrQLenPdf::18                  45478                       # What write queue length does an incoming req see
system.mem_ctrls.wrQLenPdf::19                  45478                       # What write queue length does an incoming req see
system.mem_ctrls.wrQLenPdf::20                  45478                       # What write queue length does an incoming req see
system.mem_ctrls.wrQLenPdf::21                  45478                       # What write queue length does an incoming req see
system.mem_ctrls.wrQLenPdf::22                  45478                       # What write queue length does an incoming req see
system.mem_ctrls.wrQLenPdf::23                  45478                       # What write queue length does an incoming req see
system.mem_ctrls.wrQLenPdf::24                  45478                       # What write queue length does an incoming req see
system.mem_ctrls.wrQLenPdf::25                  45478                       # What write queue length does an incoming req see
system.mem_ctrls.wrQLenPdf::26                  45478                       # What write queue length does an incoming req see
system.mem_ctrls.wrQLenPdf::27                  45478                       # What write queue length does an incoming req see
system.mem_ctrls.wrQLenPdf::28                  45478                       # What write queue length does an incoming req see
system.mem_ctrls.wrQLenPdf::29                  45478                       # What write queue length does an incoming req see
system.mem_ctrls.wrQLenPdf::30                  45478                       # What write queue length does an incoming req see
system.mem_ctrls.wrQLenPdf::31                  45477                       # What write queue length does an incoming req see
system.mem_ctrls.wrQLenPdf::32                  45477                       # What write queue length does an incoming req see
system.mem_ctrls.wrQLenPdf::33                  45477                       # What write queue length does an incoming req see
system.mem_ctrls.wrQLenPdf::34                  45477                       # What write queue length does an incoming req see
system.mem_ctrls.wrQLenPdf::35                  45477                       # What write queue length does an incoming req see
system.mem_ctrls.wrQLenPdf::36                  45477                       # What write queue length does an incoming req see
system.mem_ctrls.wrQLenPdf::37                  45477                       # What write queue length does an incoming req see
system.mem_ctrls.wrQLenPdf::38                  45477                       # What write queue length does an incoming req see
system.mem_ctrls.wrQLenPdf::39                  45477                       # What write queue length does an incoming req see
system.mem_ctrls.wrQLenPdf::40                  45477                       # What write queue length does an incoming req see
system.mem_ctrls.wrQLenPdf::41                  45477                       # What write queue length does an incoming req see
system.mem_ctrls.wrQLenPdf::42                  45477                       # What write queue length does an incoming req see
system.mem_ctrls.wrQLenPdf::43                  45477                       # What write queue length does an incoming req see
system.mem_ctrls.wrQLenPdf::44                  45477                       # What write queue length does an incoming req see
system.mem_ctrls.wrQLenPdf::45                  45477                       # What write queue length does an incoming req see
system.mem_ctrls.wrQLenPdf::46                  45477                       # What write queue length does an incoming req see
system.mem_ctrls.wrQLenPdf::47                      1                       # What write queue length does an incoming req see
system.mem_ctrls.wrQLenPdf::48                      0                       # What write queue length does an incoming req see
system.mem_ctrls.wrQLenPdf::49                      0                       # What write queue length does an incoming req see
system.mem_ctrls.wrQLenPdf::50                      0                       # What write queue length does an incoming req see
system.mem_ctrls.wrQLenPdf::51                      0                       # What write queue length does an incoming req see
system.mem_ctrls.wrQLenPdf::52                      0                       # What write queue length does an incoming req see
system.mem_ctrls.wrQLenPdf::53                      0                       # What write queue length does an incoming req see
system.mem_ctrls.wrQLenPdf::54                      0                       # What write queue length does an incoming req see
system.mem_ctrls.wrQLenPdf::55                      0                       # What write queue length does an incoming req see
system.mem_ctrls.wrQLenPdf::56                      0                       # What write queue length does an incoming req see
system.mem_ctrls.wrQLenPdf::57                      0                       # What write queue length does an incoming req see
system.mem_ctrls.wrQLenPdf::58                      0                       # What write queue length does an incoming req see
system.mem_ctrls.wrQLenPdf::59                      0                       # What write queue length does an incoming req see
system.mem_ctrls.wrQLenPdf::60                      0                       # What write queue length does an incoming req see
system.mem_ctrls.wrQLenPdf::61                      0                       # What write queue length does an incoming req see
system.mem_ctrls.wrQLenPdf::62                      0                       # What write queue length does an incoming req see
system.mem_ctrls.wrQLenPdf::63                      0                       # What write queue length does an incoming req see
system.mem_ctrls.bytesPerActivate::samples       196849                       # Bytes accessed per row activation
system.mem_ctrls.bytesPerActivate::mean    957.665297                       # Bytes accessed per row activation
system.mem_ctrls.bytesPerActivate::gmean   857.501779                       # Bytes accessed per row activation
system.mem_ctrls.bytesPerActivate::stdev   232.339284                       # Bytes accessed per row activation
system.mem_ctrls.bytesPerActivate::0-127        11711      5.95%      5.95% # Bytes accessed per row activation
system.mem_ctrls.bytesPerActivate::128-255          279      0.14%      6.09% # Bytes accessed per row activation
system.mem_ctrls.bytesPerActivate::256-383          303      0.15%      6.24% # Bytes accessed per row activation
system.mem_ctrls.bytesPerActivate::384-511          196      0.10%      6.34% # Bytes accessed per row activation
system.mem_ctrls.bytesPerActivate::512-639          612      0.31%      6.66% # Bytes accessed per row activation
system.mem_ctrls.bytesPerActivate::640-767          261      0.13%      6.79% # Bytes accessed per row activation
system.mem_ctrls.bytesPerActivate::768-895          284      0.14%      6.93% # Bytes accessed per row activation
system.mem_ctrls.bytesPerActivate::896-1023        11856      6.02%     12.96% # Bytes accessed per row activation
system.mem_ctrls.bytesPerActivate::1024-1151       171347     87.04%    100.00% # Bytes accessed per row activation
system.mem_ctrls.bytesPerActivate::total       196849                       # Bytes accessed per row activation
system.mem_ctrls.rdPerTurnAround::samples        45477                       # Reads before turning the bus around for writes
system.mem_ctrls.rdPerTurnAround::mean      32.770148                       # Reads before turning the bus around for writes
system.mem_ctrls.rdPerTurnAround::gmean     32.010985                       # Reads before turning the bus around for writes
system.mem_ctrls.rdPerTurnAround::stdev    154.006371                       # Reads before turning the bus around for writes
system.mem_ctrls.rdPerTurnAround::0-2047        45476    100.00%    100.00% # Reads before turning the bus around for writes
system.mem_ctrls.rdPerTurnAround::32768-34815            1      0.00%    100.00% # Reads before turning the bus around for writes
system.mem_ctrls.rdPerTurnAround::total         45477                       # Reads before turning the bus around for writes
system.mem_ctrls.wrPerTurnAround::samples        45477                       # Writes before turning the bus around for reads
system.mem_ctrls.wrPerTurnAround::mean      32.000022                       # Writes before turning the bus around for reads
system.mem_ctrls.wrPerTurnAround::gmean     32.000022                       # Writes before turning the bus around for reads
system.mem_ctrls.wrPerTurnAround::stdev      0.004689                       # Writes before turning the bus around for reads
system.mem_ctrls.wrPerTurnAround::32            45476    100.00%    100.00% # Writes before turning the bus around for reads
system.mem_ctrls.wrPerTurnAround::33                1      0.00%    100.00% # Writes before turning the bus around for reads
system.mem_ctrls.wrPerTurnAround::total         45477                       # Writes before turning the bus around for reads
system.mem_ctrls.bytesReadDRAM               95379456                       # Total number of bytes read from DRAM
system.mem_ctrls.bytesReadWrQ                       0                       # Total number of bytes read from write queue
system.mem_ctrls.bytesWritten                93136960                       # Total number of bytes written to DRAM
[...]
system.cpu.icache.ReadReq_miss_rate::total     0.000211                       # miss rate for ReadReq accesses
system.cpu.icache.ReadReq_avg_miss_latency::.cpu.inst 67850.923483                       # average ReadReq miss latency
system.cpu.icache.ReadReq_avg_miss_latency::total 67850.923483                       # average ReadReq miss latency
system.cpu.icache.ReadReq_mshr_misses::.cpu.inst          379                       # number of ReadReq MSHR misses
system.cpu.icache.ReadReq_mshr_misses::total          379                       # number of ReadReq MSHR misses
system.cpu.icache.ReadReq_mshr_miss_latency::.cpu.inst     25336500                       # number of ReadReq MSHR miss cycles
system.cpu.icache.ReadReq_mshr_miss_latency::total     25336500                       # number of ReadReq MSHR miss cycles
system.cpu.icache.ReadReq_mshr_miss_rate::.cpu.inst     0.000211                       # mshr miss rate for ReadReq accesses
system.cpu.icache.ReadReq_mshr_miss_rate::total     0.000211                       # mshr miss rate for ReadReq accesses
system.cpu.icache.ReadReq_avg_mshr_miss_latency::.cpu.inst 66850.923483                       # average ReadReq mshr miss latency
system.cpu.icache.ReadReq_avg_mshr_miss_latency::total 66850.923483                       # average ReadReq mshr miss latency
system.cpu.icache.tags.pwrStateResidencyTicks::UNDEFINED  76823979500                       # Cumulative time (in ticks) in various power states
system.cpu.icache.tags.tagsinuse            31.997233                       # Cycle average of tags in use
system.cpu.icache.tags.total_refs             1792866                       # Total number of references to valid blocks.
system.cpu.icache.tags.sampled_refs               379                       # Sample count of references to valid blocks.
system.cpu.icache.tags.avg_refs           4730.517150                       # Average number of references to valid blocks.
system.cpu.icache.tags.warmup_cycle            162500                       # Cycle when the warmup percentage was hit.
system.cpu.icache.tags.occ_blocks::.cpu.inst    31.997233                       # Average occupied blocks per requestor
system.cpu.icache.tags.occ_percent::.cpu.inst     0.999914                       # Average percentage of cache occupancy
system.cpu.icache.tags.occ_percent::total     0.999914                       # Average percentage of cache occupancy
system.cpu.icache.tags.occ_task_id_blocks::1024           32                       # Occupied blocks per task id
system.cpu.icache.tags.age_task_id_blocks_1024::4           32                       # Occupied blocks per task id
system.cpu.icache.tags.occ_task_id_percent::1024            1                       # Percentage of cache occupancy per task id
system.cpu.icache.tags.tag_accesses           3586111                       # Number of tag accesses
system.cpu.icache.tags.data_accesses          3586111                       # Number of data accesses
system.cpu.dtb.walker.pwrStateResidencyTicks::UNDEFINED  76823979500                       # Cumulative time (in ticks) in various power states
system.cpu.dtb.stage2_mmu.stage2_tlb.walker.pwrStateResidencyTicks::UNDEFINED  76823979500                       # Cumulative time (in ticks) in various power states
system.cpu.dcache.pwrStateResidencyTicks::UNDEFINED  76823979500                       # Cumulative time (in ticks) in various power states
system.cpu.dcache.demand_hits::.cpu.data     48620339                       # number of demand (read+write) hits
system.cpu.dcache.demand_hits::total         48620339                       # number of demand (read+write) hits
system.cpu.dcache.overall_hits::.cpu.data     48620395                       # number of overall hits
system.cpu.dcache.overall_hits::total        48620395                       # number of overall hits
system.cpu.dcache.demand_misses::.cpu.data       186059                       # number of demand (read+write) misses
system.cpu.dcache.demand_misses::total         186059                       # number of demand (read+write) misses
system.cpu.dcache.overall_misses::.cpu.data       186063                       # number of overall misses
system.cpu.dcache.overall_misses::total        186063                       # number of overall misses
system.cpu.dcache.demand_miss_latency::.cpu.data  32002519500                       # number of demand (read+write) miss cycles
system.cpu.dcache.demand_miss_latency::total  32002519500                       # number of demand (read+write) miss cycles
system.cpu.dcache.overall_miss_latency::.cpu.data  32002519500                       # number of overall miss cycles
system.cpu.dcache.overall_miss_latency::total  32002519500                       # number of overall miss cycles
system.cpu.dcache.demand_accesses::.cpu.data     48806398                       # number of demand (read+write) accesses
system.cpu.dcache.demand_accesses::total     48806398                       # number of demand (read+write) accesses
system.cpu.dcache.overall_accesses::.cpu.data     48806458                       # number of overall (read+write) accesses
system.cpu.dcache.overall_accesses::total     48806458                       # number of overall (read+write) accesses
system.cpu.dcache.demand_miss_rate::.cpu.data     0.003812                       # miss rate for demand accesses
system.cpu.dcache.demand_miss_rate::total     0.003812                       # miss rate for demand accesses
system.cpu.dcache.overall_miss_rate::.cpu.data     0.003812                       # miss rate for overall accesses
system.cpu.dcache.overall_miss_rate::total     0.003812                       # miss rate for overall accesses
system.cpu.dcache.demand_avg_miss_latency::.cpu.data 172001.996678                       # average overall miss latency
system.cpu.dcache.demand_avg_miss_latency::total 172001.996678                       # average overall miss latency
system.cpu.dcache.overall_avg_miss_latency::.cpu.data 171998.298963                       # average overall miss latency
system.cpu.dcache.overall_avg_miss_latency::total 171998.298963                       # average overall miss latency
system.cpu.dcache.blocked_cycles::no_mshrs            0                       # number of cycles access was blocked
system.cpu.dcache.blocked_cycles::no_targets            0                       # number of cycles access was blocked
system.cpu.dcache.blocked::no_mshrs                 0                       # number of cycles access was blocked
system.cpu.dcache.blocked::no_targets               0                       # number of cycles access was blocked
system.cpu.dcache.avg_blocked_cycles::no_mshrs          nan                       # average number of cycles each access was blocked
system.cpu.dcache.avg_blocked_cycles::no_targets          nan                       # average number of cycles each access was blocked
system.cpu.dcache.writebacks::.writebacks        92945                       # number of writebacks
system.cpu.dcache.writebacks::total             92945                       # number of writebacks
system.cpu.dcache.demand_mshr_hits::.cpu.data        92996                       # number of demand (read+write) MSHR hits
system.cpu.dcache.demand_mshr_hits::total        92996                       # number of demand (read+write) MSHR hits
system.cpu.dcache.overall_mshr_hits::.cpu.data        92996                       # number of overall MSHR hits
system.cpu.dcache.overall_mshr_hits::total        92996                       # number of overall MSHR hits
system.cpu.dcache.demand_mshr_misses::.cpu.data        93063                       # number of demand (read+write) MSHR misses
system.cpu.dcache.demand_mshr_misses::total        93063                       # number of demand (read+write) MSHR misses
system.cpu.dcache.overall_mshr_misses::.cpu.data        93065                       # number of overall MSHR misses
system.cpu.dcache.overall_mshr_misses::total        93065                       # number of overall MSHR misses
system.cpu.dcache.demand_mshr_miss_latency::.cpu.data  15460401000                       # number of demand (read+write) MSHR miss cycles
system.cpu.dcache.demand_mshr_miss_latency::total  15460401000                       # number of demand (read+write) MSHR miss cycles
system.cpu.dcache.overall_mshr_miss_latency::.cpu.data  15460738000                       # number of overall MSHR miss cycles
system.cpu.dcache.overall_mshr_miss_latency::total  15460738000                       # number of overall MSHR miss cycles
system.cpu.dcache.demand_mshr_miss_rate::.cpu.data     0.001907                       # mshr miss rate for demand accesses
system.cpu.dcache.demand_mshr_miss_rate::total     0.001907                       # mshr miss rate for demand accesses
system.cpu.dcache.overall_mshr_miss_rate::.cpu.data     0.001907                       # mshr miss rate for overall accesses
system.cpu.dcache.overall_mshr_miss_rate::total     0.001907                       # mshr miss rate for overall accesses
system.cpu.dcache.demand_avg_mshr_miss_latency::.cpu.data 166128.332420                       # average overall mshr miss latency
system.cpu.dcache.demand_avg_mshr_miss_latency::total 166128.332420                       # average overall mshr miss latency
system.cpu.dcache.overall_avg_mshr_miss_latency::.cpu.data 166128.383388                       # average overall mshr miss latency
system.cpu.dcache.overall_avg_mshr_miss_latency::total 166128.383388                       # average overall mshr miss latency
system.cpu.dcache.replacements                  93001                       # number of replacements
system.cpu.dcache.ReadReq_hits::.cpu.data     35710815                       # number of ReadReq hits
system.cpu.dcache.ReadReq_hits::total        35710815                       # number of ReadReq hits
system.cpu.dcache.ReadReq_misses::.cpu.data           67                       # number of ReadReq misses
system.cpu.dcache.ReadReq_misses::total            67                       # number of ReadReq misses
system.cpu.dcache.ReadReq_miss_latency::.cpu.data      6271000                       # number of ReadReq miss cycles
system.cpu.dcache.ReadReq_miss_latency::total      6271000                       # number of ReadReq miss cycles
system.cpu.dcache.ReadReq_accesses::.cpu.data     35710882                       # number of ReadReq accesses(hits+misses)
system.cpu.dcache.ReadReq_accesses::total     35710882                       # number of ReadReq accesses(hits+misses)
system.cpu.dcache.ReadReq_miss_rate::.cpu.data     0.000002                       # miss rate for ReadReq accesses
system.cpu.dcache.ReadReq_miss_rate::total     0.000002                       # miss rate for ReadReq accesses
system.cpu.dcache.ReadReq_avg_miss_latency::.cpu.data 93597.014925                       # average ReadReq miss latency
system.cpu.dcache.ReadReq_avg_miss_latency::total 93597.014925                       # average ReadReq miss latency
system.cpu.dcache.ReadReq_mshr_hits::.cpu.data            4                       # number of ReadReq MSHR hits
system.cpu.dcache.ReadReq_mshr_hits::total            4                       # number of ReadReq MSHR hits
system.cpu.dcache.ReadReq_mshr_misses::.cpu.data           63                       # number of ReadReq MSHR misses
system.cpu.dcache.ReadReq_mshr_misses::total           63                       # number of ReadReq MSHR misses
system.cpu.dcache.ReadReq_mshr_miss_latency::.cpu.data      5520500                       # number of ReadReq MSHR miss cycles
system.cpu.dcache.ReadReq_mshr_miss_latency::total      5520500                       # number of ReadReq MSHR miss cycles
system.cpu.dcache.ReadReq_mshr_miss_rate::.cpu.data     0.000002                       # mshr miss rate for ReadReq accesses
system.cpu.dcache.ReadReq_mshr_miss_rate::total     0.000002                       # mshr miss rate for ReadReq accesses
system.cpu.dcache.ReadReq_avg_mshr_miss_latency::.cpu.data 87626.984127                       # average ReadReq mshr miss latency
system.cpu.dcache.ReadReq_avg_mshr_miss_latency::total 87626.984127                       # average ReadReq mshr miss latency
system.cpu.dcache.WriteReq_hits::.cpu.data     12909524                       # number of WriteReq hits
system.cpu.dcache.WriteReq_hits::total       12909524                       # number of WriteReq hits
system.cpu.dcache.WriteReq_misses::.cpu.data       185992                       # number of WriteReq misses
system.cpu.dcache.WriteReq_misses::total       185992                       # number of WriteReq misses
system.cpu.dcache.WriteReq_miss_latency::.cpu.data  31996248500                       # number of WriteReq miss cycles
system.cpu.dcache.WriteReq_miss_latency::total  31996248500                       # number of WriteReq miss cycles
system.cpu.dcache.WriteReq_accesses::.cpu.data     13095516                       # number of WriteReq accesses(hits+misses)
system.cpu.dcache.WriteReq_accesses::total     13095516                       # number of WriteReq accesses(hits+misses)
system.cpu.dcache.WriteReq_miss_rate::.cpu.data     0.014203                       # miss rate for WriteReq accesses
system.cpu.dcache.WriteReq_miss_rate::total     0.014203                       # miss rate for WriteReq accesses
system.cpu.dcache.WriteReq_avg_miss_latency::.cpu.data 172030.240548                       # average WriteReq miss latency
system.cpu.dcache.WriteReq_avg_miss_latency::total 172030.240548                       # average WriteReq miss latency
system.cpu.dcache.WriteReq_mshr_hits::.cpu.data        92992                       # number of WriteReq MSHR hits
system.cpu.dcache.WriteReq_mshr_hits::total        92992                       # number of WriteReq MSHR hits
system.cpu.dcache.WriteReq_mshr_misses::.cpu.data        93000                       # number of WriteReq MSHR misses
system.cpu.dcache.WriteReq_mshr_misses::total        93000                       # number of WriteReq MSHR misses
system.cpu.dcache.WriteReq_mshr_miss_latency::.cpu.data  15454880500                       # number of WriteReq MSHR miss cycles
system.cpu.dcache.WriteReq_mshr_miss_latency::total  15454880500                       # number of WriteReq MSHR miss cycles
system.cpu.dcache.WriteReq_mshr_miss_rate::.cpu.data     0.007102                       # mshr miss rate for WriteReq accesses
system.cpu.dcache.WriteReq_mshr_miss_rate::total     0.007102                       # mshr miss rate for WriteReq accesses
system.cpu.dcache.WriteReq_avg_mshr_miss_latency::.cpu.data 166181.510753                       # average WriteReq mshr miss latency
system.cpu.dcache.WriteReq_avg_mshr_miss_latency::total 166181.510753                       # average WriteReq mshr miss latency
system.cpu.dcache.SoftPFReq_hits::.cpu.data           56                       # number of SoftPFReq hits
system.cpu.dcache.SoftPFReq_hits::total            56                       # number of SoftPFReq hits
system.cpu.dcache.SoftPFReq_misses::.cpu.data            4                       # number of SoftPFReq misses
system.cpu.dcache.SoftPFReq_misses::total            4                       # number of SoftPFReq misses
system.cpu.dcache.SoftPFReq_accesses::.cpu.data           60                       # number of SoftPFReq accesses(hits+misses)
system.cpu.dcache.SoftPFReq_accesses::total           60                       # number of SoftPFReq accesses(hits+misses)
system.cpu.dcache.SoftPFReq_miss_rate::.cpu.data     0.066667                       # miss rate for SoftPFReq accesses
system.cpu.dcache.SoftPFReq_miss_rate::total     0.066667                       # miss rate for SoftPFReq accesses
system.cpu.dcache.SoftPFReq_mshr_misses::.cpu.data            2                       # number of SoftPFReq MSHR misses
system.cpu.dcache.SoftPFReq_mshr_misses::total            2                       # number of SoftPFReq MSHR misses
system.cpu.dcache.SoftPFReq_mshr_miss_latency::.cpu.data       337000                       # number of SoftPFReq MSHR miss cycles
system.cpu.dcache.SoftPFReq_mshr_miss_latency::total       337000                       # number of SoftPFReq MSHR miss cycles
system.cpu.dcache.SoftPFReq_mshr_miss_rate::.cpu.data     0.033333                       # mshr miss rate for SoftPFReq accesses
system.cpu.dcache.SoftPFReq_mshr_miss_rate::total     0.033333                       # mshr miss rate for SoftPFReq accesses
system.cpu.dcache.SoftPFReq_avg_mshr_miss_latency::.cpu.data       168500                       # average SoftPFReq mshr miss latency
system.cpu.dcache.SoftPFReq_avg_mshr_miss_latency::total       168500                       # average SoftPFReq mshr miss latency
system.cpu.dcache.LoadLockedReq_hits::.cpu.data           14                       # number of LoadLockedReq hits
system.cpu.dcache.LoadLockedReq_hits::total           14                       # number of LoadLockedReq hits
system.cpu.dcache.LoadLockedReq_accesses::.cpu.data           14                       # number of LoadLockedReq accesses(hits+misses)
system.cpu.dcache.LoadLockedReq_accesses::total           14                       # number of LoadLockedReq accesses(hits+misses)
system.cpu.dcache.StoreCondReq_hits::.cpu.data           14                       # number of StoreCondReq hits
system.cpu.dcache.StoreCondReq_hits::total           14                       # number of StoreCondReq hits
system.cpu.dcache.StoreCondReq_accesses::.cpu.data           14                       # number of StoreCondReq accesses(hits+misses)
system.cpu.dcache.StoreCondReq_accesses::total           14                       # number of StoreCondReq accesses(hits+misses)
system.cpu.dcache.tags.pwrStateResidencyTicks::UNDEFINED  76823979500                       # Cumulative time (in ticks) in various power states
system.cpu.dcache.tags.tagsinuse            63.973930                       # Cycle average of tags in use
system.cpu.dcache.tags.total_refs            48713488                       # Total number of references to valid blocks.
system.cpu.dcache.tags.sampled_refs             93065                       # Sample count of references to valid blocks.
system.cpu.dcache.tags.avg_refs            523.435104                       # Average number of references to valid blocks.
system.cpu.dcache.tags.warmup_cycle            404500                       # Cycle when the warmup percentage was hit.
system.cpu.dcache.tags.occ_blocks::.cpu.data    63.973930                       # Average occupied blocks per requestor
system.cpu.dcache.tags.occ_percent::.cpu.data     0.999593                       # Average percentage of cache occupancy
system.cpu.dcache.tags.occ_percent::total     0.999593                       # Average percentage of cache occupancy
system.cpu.dcache.tags.occ_task_id_blocks::1024           64                       # Occupied blocks per task id
system.cpu.dcache.tags.age_task_id_blocks_1024::0           12                       # Occupied blocks per task id
system.cpu.dcache.tags.age_task_id_blocks_1024::1           50                       # Occupied blocks per task id
system.cpu.dcache.tags.age_task_id_blocks_1024::4            2                       # Occupied blocks per task id
system.cpu.dcache.tags.occ_task_id_percent::1024            1                       # Percentage of cache occupancy per task id
system.cpu.dcache.tags.tag_accesses          97706037                       # Number of tag accesses
system.cpu.dcache.tags.data_accesses         97706037                       # Number of data accesses
system.cpu.itb.walker.pwrStateResidencyTicks::UNDEFINED  76823979500                       # Cumulative time (in ticks) in various power states
system.cpu.itb.stage2_mmu.stage2_tlb.walker.pwrStateResidencyTicks::UNDEFINED  76823979500                       # Cumulative time (in ticks) in various power states

---------- End Simulation Statistics   ----------
