
---------- Begin Simulation Statistics ----------
final_tick                               197208538000                       # Number of ticks from beginning of simulation (restored from checkpoints and never reset)
host_inst_rate                                 212707                       # Simulator instruction rate (inst/s)
host_mem_usage                                 698464                       # Number of bytes of host memory used
host_op_rate                                   391752                       # Simulator op (including micro ops) rate (op/s)
host_seconds                                   470.13                       # Real time elapsed on the host
host_tick_rate                              419475380                       # Simulator tick rate (ticks/s)
sim_freq                                 1000000000000                       # Frequency of simulated ticks
sim_insts                                   100000001                       # Number of instructions simulated
sim_ops                                     184174791                       # Number of ops (including micro ops) simulated
sim_seconds                                  0.197209                       # Number of seconds simulated
sim_ticks                                197208538000                       # Number of ticks simulated
system.cpu.branchPred.BTBCorrect                    0                       # Number of correct BTB predictions (this stat may not work properly.
system.cpu.branchPred.BTBHitPct             99.955441                       # BTB Hit Percentage
system.cpu.branchPred.BTBHits                10560996                       # Number of BTB hits
system.cpu.branchPred.BTBLookups             10565704                       # Number of BTB lookups
system.cpu.branchPred.RASInCorrect                  4                       # Number of incorrect RAS predictions.
system.cpu.branchPred.condIncorrect              1454                       # Number of conditional branches incorrect
system.cpu.branchPred.condPredicted          10562128                       # Number of conditional branches predicted
system.cpu.branchPred.indirectHits                 30                       # Number of indirect target hits.
system.cpu.branchPred.indirectLookups             214                       # Number of indirect predictor lookups.
system.cpu.branchPred.indirectMisses              184                       # Number of indirect misses.
system.cpu.branchPred.lookups                10570372                       # Number of BP lookups
system.cpu.branchPred.usedRAS                    2728                       # Number of times the RAS was used to get a target.
system.cpu.branchPredindirectMispredicted           97                       # Number of mispredicted indirect branches.
system.cpu.committedInsts                   100000001                       # Number of instructions committed
system.cpu.committedOps                     184174791                       # Number of ops (including micro ops) committed
system.cpu.cpi                               3.944171                       # CPI: cycles per instruction
system.cpu.discardedOps                          4297                       # Number of ops (including micro ops) which were discarded before commit
system.cpu.dtb.accesses                             0                       # DTB accesses
system.cpu.dtb.align_faults                         0                       # Number of TLB faults due to alignment restrictions
system.cpu.dtb.domain_faults                        0                       # Number of TLB faults due to domain restrictions
system.cpu.dtb.flush_entries                        0                       # Number of entries that have been flushed from TLB
system.cpu.dtb.flush_tlb                            0                       # Number of times complete TLB was flushed
system.cpu.dtb.flush_tlb_asid                       0                       # Number of times TLB was flushed by ASID
system.cpu.dtb.flush_tlb_mva                        0                       # Number of times TLB was flushed by MVA
system.cpu.dtb.flush_tlb_mva_asid                   0                       # Number of times TLB was flushed by MVA & ASID
system.cpu.dtb.hits                                 0                       # DTB hits
system.cpu.dtb.inst_accesses                        0                       # ITB inst accesses
system.cpu.dtb.inst_hits                            0                       # ITB inst hits
system.cpu.dtb.inst_misses                          0                       # ITB inst misses
system.cpu.dtb.misses                               0                       # DTB misses
system.cpu.dtb.perms_faults                         0                       # Number of TLB faults due to permissions restrictions
system.cpu.dtb.prefetch_faults                      0                       # Number of TLB faults due to prefetch
system.cpu.dtb.read_accesses                        0                       # DTB read accesses
system.cpu.dtb.read_hits                            0                       # DTB read hits
system.cpu.dtb.read_misses                          0                       # DTB read misses
system.cpu.dtb.stage2_mmu.stage2_tlb.accesses            0                       # DTB accesses
system.cpu.dtb.stage2_mmu.stage2_tlb.align_faults            0                       # Number of TLB faults due to alignment restrictions
system.cpu.dtb.stage2_mmu.stage2_tlb.domain_faults            0                       # Number of TLB faults due to domain restrictions
system.cpu.dtb.stage2_mmu.stage2_tlb.flush_entries            0                       # Number of entries that have been flushed from TLB
system.cpu.dtb.stage2_mmu.stage2_tlb.flush_tlb            0                       # Number of times complete TLB was flushed
system.cpu.dtb.stage2_mmu.stage2_tlb.flush_tlb_asid            0                       # Number of times TLB was flushed by ASID
system.cpu.dtb.stage2_mmu.stage2_tlb.flush_tlb_mva            0                       # Number of times TLB was flushed by MVA
system.cpu.dtb.stage2_mmu.stage2_tlb.flush_tlb_mva_asid            0                       # Number of times TLB was flushed by MVA & ASID
system.cpu.dtb.stage2_mmu.stage2_tlb.hits            0                       # DTB hits
system.cpu.dtb.stage2_mmu.stage2_tlb.inst_accesses            0                       # ITB inst accesses
system.cpu.dtb.stage2_mmu.stage2_tlb.inst_hits            0                       # ITB inst hits
system.cpu.dtb.stage2_mmu.stage2_tlb.inst_misses            0                       # ITB inst misses
system.cpu.dtb.stage2_mmu.stage2_tlb.misses            0                       # DTB misses
system.cpu.dtb.stage2_mmu.stage2_tlb.perms_faults            0                       # Number of TLB faults due to permissions restrictions
system.cpu.dtb.stage2_mmu.stage2_tlb.prefetch_faults            0                       # Number of TLB faults due to prefetch
system.cpu.dtb.stage2_mmu.stage2_tlb.read_accesses            0                       # DTB read accesses
system.cpu.dtb.stage2_mmu.stage2_tlb.read_hits            0                       # DTB read hits
system.cpu.dtb.stage2_mmu.stage2_tlb.read_misses            0                       # DTB read misses
system.cpu.dtb.stage2_mmu.stage2_tlb.walker.walkRequestOrigin_Requested::Data            0                       # Table walker requests started/completed, data/inst
system.cpu.dtb.stage2_mmu.stage2_tlb.walker.walkRequestOrigin_Requested::Inst            0                       # Table walker requests started/completed, data/inst
system.cpu.dtb.stage2_mmu.stage2_tlb.walker.walkRequestOrigin_Requested::total            0                       # Table walker requests started/completed, data/inst
system.cpu.dtb.stage2_mmu.stage2_tlb.walker.walkRequestOrigin_Completed::Data            0                       # Table walker requests started/completed, data/inst
system.cpu.dtb.stage2_mmu.stage2_tlb.walker.walkRequestOrigin_Completed::Inst            0                       # Table walker requests started/completed, data/inst
system.cpu.dtb.stage2_mmu.stage2_tlb.walker.walkRequestOrigin_Completed::total            0                       # Table walker requests started/completed, data/inst
system.cpu.dtb.stage2_mmu.stage2_tlb.walker.walkRequestOrigin::total            0                       # Table walker requests started/completed, data/inst
system.cpu.dtb.stage2_mmu.stage2_tlb.walker.walks            0                       # Table walker walks requested
system.cpu.dtb.stage2_mmu.stage2_tlb.write_accesses            0                       # DTB write accesses
system.cpu.dtb.stage2_mmu.stage2_tlb.write_hits            0                       # DTB write hits
system.cpu.dtb.stage2_mmu.stage2_tlb.write_misses            0                       # DTB write misses
system.cpu.dtb.walker.walkRequestOrigin_Requested::Data            0                       # Table walker requests started/completed, data/inst
system.cpu.dtb.walker.walkRequestOrigin_Requested::Inst            0                       # Table walker requests started/completed, data/inst
system.cpu.dtb.walker.walkRequestOrigin_Requested::total            0                       # Table walker requests started/completed, data/inst
system.cpu.dtb.walker.walkRequestOrigin_Completed::Data            0                       # Table walker requests started/completed, data/inst
system.cpu.dtb.walker.walkRequestOrigin_Completed::Inst            0                       # Table walker requests started/completed, data/inst
system.cpu.dtb.walker.walkRequestOrigin_Completed::total            0                       # Table walker requests started/completed, data/inst
system.cpu.dtb.walker.walkRequestOrigin::total            0                       # Table walker requests started/completed, data/inst
system.cpu.dtb.walker.walks                         0                       # Table walker walks requested
system.cpu.dtb.write_accesses                       0                       # DTB write accesses
system.cpu.dtb.write_hits                           0                       # DTB write hits
system.cpu.dtb.write_misses                         0                       # DTB write misses
system.cpu.fetch2.amo_instructions                  0                       # Number of memory atomic instructions successfully decoded
system.cpu.fetch2.fp_instructions                   0                       # Number of floating point instructions successfully decoded
system.cpu.fetch2.int_instructions           44895250                       # Number of integer instructions successfully decoded
system.cpu.fetch2.load_instructions           2086480                       # Number of memory load instructions successfully decoded
system.cpu.fetch2.store_instructions           169176                       # Number of memory store instructions successfully decoded
system.cpu.fetch2.vec_instructions                  0                       # Number of SIMD instructions successfully decoded
system.cpu.idleCycles                       177817012                       # Total number of cycles that the object has spent stopped
system.cpu.ipc                               0.253539                       # IPC: instructions per cycle
system.cpu.itb.accesses                             0                       # DTB accesses
system.cpu.itb.align_faults                         0                       # Number of TLB faults due to alignment restrictions
system.cpu.itb.domain_faults                        0                       # Number of TLB faults due to domain restrictions
system.cpu.itb.flush_entries                        0                       # Number of entries that have been flushed from TLB
system.cpu.itb.flush_tlb                            0                       # Number of times complete TLB was flushed
system.cpu.itb.flush_tlb_asid                       0                       # Number of times TLB was flushed by ASID
system.cpu.itb.flush_tlb_mva                        0                       # Number of times TLB was flushed by MVA
system.cpu.itb.flush_tlb_mva_asid                   0                       # Number of times TLB was flushed by MVA & ASID
system.cpu.itb.hits                                 0                       # DTB hits
system.cpu.itb.inst_accesses                        0                       # ITB inst accesses
system.cpu.itb.inst_hits                            0                       # ITB inst hits
system.cpu.itb.inst_misses                          0                       # ITB inst misses
system.cpu.itb.misses                               0                       # DTB misses
system.cpu.itb.perms_faults                         0                       # Number of TLB faults due to permissions restrictions
system.cpu.itb.prefetch_faults                      0                       # Number of TLB faults due to prefetch
system.cpu.itb.read_accesses                        0                       # DTB read accesses
system.cpu.itb.read_hits                            0                       # DTB read hits
system.cpu.itb.read_misses                          0                       # DTB read misses
system.cpu.itb.stage2_mmu.stage2_tlb.accesses            0                       # DTB accesses
system.cpu.itb.stage2_mmu.stage2_tlb.align_faults            0                       # Number of TLB faults due to alignment restrictions
system.cpu.itb.stage2_mmu.stage2_tlb.domain_faults            0                       # Number of TLB faults due to domain restrictions
system.cpu.itb.stage2_mmu.stage2_tlb.flush_entries            0                       # Number of entries that have been flushed from TLB
system.cpu.itb.stage2_mmu.stage2_tlb.flush_tlb            0                       # Number of times complete TLB was flushed
system.cpu.itb.stage2_mmu.stage2_tlb.flush_tlb_asid            0                       # Number of times TLB was flushed by ASID
system.cpu.itb.stage2_mmu.stage2_tlb.flush_tlb_mva            0                       # Number of times TLB was flushed by MVA
system.cpu.itb.stage2_mmu.stage2_tlb.flush_tlb_mva_asid            0                       # Number of times TLB was flushed by MVA & ASID
system.cpu.itb.stage2_mmu.stage2_tlb.hits            0                       # DTB hits
system.cpu.itb.stage2_mmu.stage2_tlb.inst_accesses            0                       # ITB inst accesses
system.cpu.itb.stage2_mmu.stage2_tlb.inst_hits            0                       # ITB inst hits
system.cpu.itb.stage2_mmu.stage2_tlb.inst_misses            0                       # ITB inst misses
system.cpu.itb.stage2_mmu.stage2_tlb.misses            0                       # DTB misses
system.cpu.itb.stage2_mmu.stage2_tlb.perms_faults            0                       # Number of TLB faults due to permissions restrictions
system.cpu.itb.stage2_mmu.stage2_tlb.prefetch_faults            0                       # Number of TLB faults due to prefetch
system.cpu.itb.stage2_mmu.stage2_tlb.read_accesses            0                       # DTB read accesses
system.cpu.itb.stage2_mmu.stage2_tlb.read_hits            0                       # DTB read hits
system.cpu.itb.stage2_mmu.stage2_tlb.read_misses            0                       # DTB read misses
system.cpu.itb.stage2_mmu.stage2_tlb.walker.walkRequestOrigin_Requested::Data            0                       # Table walker requests started/completed, data/inst
system.cpu.itb.stage2_mmu.stage2_tlb.walker.walkRequestOrigin_Requested::Inst            0                       # Table walker requests started/completed, data/inst
system.cpu.itb.stage2_mmu.stage2_tlb.walker.walkRequestOrigin_Requested::total            0                       # Table walker requests started/completed, data/inst
system.cpu.itb.stage2_mmu.stage2_tlb.walker.walkRequestOrigin_Completed::Data            0                       # Table walker requests started/completed, data/inst
system.cpu.itb.stage2_mmu.stage2_tlb.walker.walkRequestOrigin_Completed::Inst            0                       # Table walker requests started/completed, data/inst
system.cpu.itb.stage2_mmu.stage2_tlb.walker.walkRequestOrigin_Completed::total            0                       # Table walker requests started/completed, data/inst
system.cpu.itb.stage2_mmu.stage2_tlb.walker.walkRequestOrigin::total            0                       # Table walker requests started/completed, data/inst
system.cpu.itb.stage2_mmu.stage2_tlb.walker.walks            0                       # Table walker walks requested
system.cpu.itb.stage2_mmu.stage2_tlb.write_accesses            0                       # DTB write accesses
system.cpu.itb.stage2_mmu.stage2_tlb.write_hits            0                       # DTB write hits
system.cpu.itb.stage2_mmu.stage2_tlb.write_misses            0                       # DTB write misses
system.cpu.itb.walker.walkRequestOrigin_Requested::Data            0                       # Table walker requests started/completed, data/inst
system.cpu.itb.walker.walkRequestOrigin_Requested::Inst            0                       # Table walker requests started/completed, data/inst
system.cpu.itb.walker.walkRequestOrigin_Requested::total            0                       # Table walker requests started/completed, data/inst
system.cpu.itb.walker.walkRequestOrigin_Completed::Data            0                       # Table walker requests started/completed, data/inst
system.cpu.itb.walker.walkRequestOrigin_Completed::Inst            0                       # Table walker requests started/completed, data/inst
system.cpu.itb.walker.walkRequestOrigin_Completed::total            0                       # Table walker requests started/completed, data/inst
system.cpu.itb.walker.walkRequestOrigin::total            0                       # Table walker requests started/completed, data/inst
system.cpu.itb.walker.walks                         0                       # Table walker walks requested
system.cpu.itb.write_accesses                       0                       # DTB write accesses
system.cpu.itb.write_hits                           0                       # DTB write hits
system.cpu.itb.write_misses                         0                       # DTB write misses
system.cpu.numCycles                        394417076                       # number of cpu cycles simulated
system.cpu.numFetchSuspends                         0                       # Number of times Execute suspended instruction fetching
system.cpu.numWorkItemsCompleted                    0                       # number of work items this cpu completed
system.cpu.numWorkItemsStarted                      0                       # number of work items this cpu started
system.cpu.op_class_0::No_OpClass                   0      0.00%      0.00% # Class of committed instruction
system.cpu.op_class_0::IntAlu                97640484     53.02%     53.02% # Class of committed instruction
system.cpu.op_class_0::IntMult                 114699      0.06%     53.08% # Class of committed instruction
system.cpu.op_class_0::IntDiv                       0      0.00%     53.08% # Class of committed instruction
system.cpu.op_class_0::FloatAdd                     0      0.00%     53.08% # Class of committed instruction
system.cpu.op_class_0::FloatCmp                     0      0.00%     53.08% # Class of committed instruction
system.cpu.op_class_0::FloatCvt                     0      0.00%     53.08% # Class of committed instruction
system.cpu.op_class_0::FloatMult                    0      0.00%     53.08% # Class of committed instruction
system.cpu.op_class_0::FloatMultAcc                 0      0.00%     53.08% # Class of committed instruction
system.cpu.op_class_0::FloatDiv                     0      0.00%     53.08% # Class of committed instruction
system.cpu.op_class_0::FloatMisc                    0      0.00%     53.08% # Class of committed instruction
system.cpu.op_class_0::FloatSqrt                    0      0.00%     53.08% # Class of committed instruction
system.cpu.op_class_0::SimdAdd                      8      0.00%     53.08% # Class of committed instruction
system.cpu.op_class_0::SimdAddAcc                   0      0.00%     53.08% # Class of committed instruction
system.cpu.op_class_0::SimdAlu                      8      0.00%     53.08% # Class of committed instruction
system.cpu.op_class_0::SimdCmp                      6      0.00%     53.08% # Class of committed instruction
system.cpu.op_class_0::SimdCvt                      0      0.00%     53.08% # Class of committed instruction
system.cpu.op_class_0::SimdMisc                     1      0.00%     53.08% # Class of committed instruction
system.cpu.op_class_0::SimdMult                     0      0.00%     53.08% # Class of committed instruction
system.cpu.op_class_0::SimdMultAcc                  0      0.00%     53.08% # Class of committed instruction
system.cpu.op_class_0::SimdShift                    0      0.00%     53.08% # Class of committed instruction
system.cpu.op_class_0::SimdShiftAcc                 0      0.00%     53.08% # Class of committed instruction
system.cpu.op_class_0::SimdDiv                      0      0.00%     53.08% # Class of committed instruction
system.cpu.op_class_0::SimdSqrt                     0      0.00%     53.08% # Class of committed instruction
system.cpu.op_class_0::SimdFloatAdd                 0      0.00%     53.08% # Class of committed instruction
system.cpu.op_class_0::SimdFloatAlu                 0      0.00%     53.08% # Class of committed instruction
system.cpu.op_class_0::SimdFloatCmp                 0      0.00%     53.08% # Class of committed instruction
system.cpu.op_class_0::SimdFloatCvt                 0      0.00%     53.08% # Class of committed instruction
system.cpu.op_class_0::SimdFloatDiv                 0      0.00%     53.08% # Class of committed instruction
system.cpu.op_class_0::SimdFloatMisc               23      0.00%     53.08% # Class of committed instruction
system.cpu.op_class_0::SimdFloatMult                0      0.00%     53.08% # Class of committed instruction
system.cpu.op_class_0::SimdFloatMultAcc             0      0.00%     53.08% # Class of committed instruction
system.cpu.op_class_0::SimdFloatSqrt                0      0.00%     53.08% # Class of committed instruction
system.cpu.op_class_0::SimdReduceAdd                0      0.00%     53.08% # Class of committed instruction
system.cpu.op_class_0::SimdReduceAlu                0      0.00%     53.08% # Class of committed instruction
system.cpu.op_class_0::SimdReduceCmp                0      0.00%     53.08% # Class of committed instruction
system.cpu.op_class_0::SimdFloatReduceAdd            0      0.00%     53.08% # Class of committed instruction
system.cpu.op_class_0::SimdFloatReduceCmp            0      0.00%     53.08% # Class of committed instruction
system.cpu.op_class_0::SimdAes                      0      0.00%     53.08% # Class of committed instruction
system.cpu.op_class_0::SimdAesMix                   0      0.00%     53.08% # Class of committed instruction
system.cpu.op_class_0::SimdSha1Hash                 0      0.00%     53.08% # Class of committed instruction
system.cpu.op_class_0::SimdSha1Hash2                0      0.00%     53.08% # Class of committed instruction
system.cpu.op_class_0::SimdSha256Hash               0      0.00%     53.08% # Class of committed instruction
system.cpu.op_class_0::SimdSha256Hash2              0      0.00%     53.08% # Class of committed instruction
system.cpu.op_class_0::SimdShaSigma2                0      0.00%     53.08% # Class of committed instruction
system.cpu.op_class_0::SimdShaSigma3                0      0.00%     53.08% # Class of committed instruction
system.cpu.op_class_0::SimdPredAlu                  0      0.00%     53.08% # Class of committed instruction
system.cpu.op_class_0::MemRead                2082680      1.13%     54.21% # Class of committed instruction
system.cpu.op_class_0::MemWrite              84336882     45.79%    100.00% # Class of committed instruction
system.cpu.op_class_0::FloatMemRead                 0      0.00%    100.00% # Class of committed instruction
system.cpu.op_class_0::FloatMemWrite                0      0.00%    100.00% # Class of committed instruction
system.cpu.op_class_0::IprAccess                    0      0.00%    100.00% # Class of committed instruction
system.cpu.op_class_0::InstPrefetch                 0      0.00%    100.00% # Class of committed instruction
system.cpu.op_class_0::total                184174791                       # Class of committed instruction
system.cpu.tickCycles                       216600064                       # Number of cycles that the object actually ticked
system.cpu.workload.numSyscalls                    18                       # Number of system calls
system.membus.snoop_filter.hit_multi_requests            0                       # Number of requests hitting in the snoop filter with multiple (>1) holders of the requested data.
system.membus.snoop_filter.hit_multi_snoops            0                       # Number of snoops hitting in the snoop filter with multiple (>1) holders of the requested data.
system.membus.snoop_filter.hit_single_requests       654132                       # Number of requests hitting in the snoop filter with a single holder of the requested data.
system.membus.snoop_filter.hit_single_snoops            0                       # Number of snoops hitting in the snoop filter with a single holder of the requested data.
system.membus.snoop_filter.tot_requests       1312418                       # Total number of requests made to the snoop filter.
system.membus.snoop_filter.tot_snoops               0                       # Total number of snoops made to the snoop filter.
system.tol2bus.snoop_filter.hit_multi_requests           57                       # Number of requests hitting in the snoop filter with multiple (>1) holders of the requested data.
system.tol2bus.snoop_filter.hit_multi_snoops            0                       # Number of snoops hitting in the snoop filter with multiple (>1) holders of the requested data.
system.tol2bus.snoop_filter.hit_single_requests       661071                       # Number of requests hitting in the snoop filter with a single holder of the requested data.
system.tol2bus.snoop_filter.hit_single_snoops          127                       # Number of snoops hitting in the snoop filter with a single holder of the requested data.
system.tol2bus.snoop_filter.tot_requests      1322334                       # Total number of requests made to the snoop filter.
system.tol2bus.snoop_filter.tot_snoops            127                       # Total number of snoops made to the snoop filter.
system.membus.pwrStateResidencyTicks::UNDEFINED 197208538000                       # Cumulative time (in ticks) in various power states
system.membus.trans_dist::ReadResp                325                       # Transaction distribution
system.membus.trans_dist::WritebackDirty       653886                       # Transaction distribution
system.membus.trans_dist::CleanEvict              240                       # Transaction distribution
system.membus.trans_dist::ReadExReq            657967                       # Transaction distribution
system.membus.trans_dist::ReadExResp           657967                       # Transaction distribution
system.membus.trans_dist::ReadSharedReq           325                       # Transaction distribution
system.membus.pkt_count_system.l2.mem_side::system.mem_ctrls.port      1970710                       # Packet count per connected master and slave (bytes)
system.membus.pkt_count::total                1970710                       # Packet count per connected master and slave (bytes)
system.membus.pkt_size_system.l2.mem_side::system.mem_ctrls.port    671835136                       # Cumulative packet size per connected master and slave (bytes)
system.membus.pkt_size::total               671835136                       # Cumulative packet size per connected master and slave (bytes)
system.membus.snoops                                0                       # Total snoops (count)
system.membus.snoopTraffic                          0                       # Total snoop traffic (bytes)
system.membus.snoop_fanout::samples            658292                       # Request fanout histogram
system.membus.snoop_fanout::mean                    0                       # Request fanout histogram
system.membus.snoop_fanout::stdev                   0                       # Request fanout histogram
system.membus.snoop_fanout::underflows              0      0.00%      0.00% # Request fanout histogram
system.membus.snoop_fanout::0                  658292    100.00%    100.00% # Request fanout histogram
system.membus.snoop_fanout::1                       0      0.00%    100.00% # Request fanout histogram
system.membus.snoop_fanout::overflows               0      0.00%    100.00% # Request fanout histogram
system.membus.snoop_fanout::min_value               0                       # Request fanout histogram
system.membus.snoop_fanout::max_value               0                       # Request fanout histogram
system.membus.snoop_fanout::total              658292                       # Request fanout histogram
system.membus.respLayer1.occupancy        21961667000                       # Layer occupancy (ticks)
system.membus.respLayer1.utilization             11.1                       # Layer utilization (%)
system.membus.reqLayer0.occupancy         22236969500                       # Layer occupancy (ticks)
system.membus.reqLayer0.utilization              11.3                       # Layer utilization (%)
system.tol2bus.pwrStateResidencyTicks::UNDEFINED 197208538000                       # Cumulative time (in ticks) in various power states
system.tol2bus.trans_dist::ReadResp              1884                       # Transaction distribution
system.tol2bus.trans_dist::WritebackDirty      1313164                       # Transaction distribution
system.tol2bus.trans_dist::WritebackClean          255                       # Transaction distribution
system.tol2bus.trans_dist::CleanEvict            1905                       # Transaction distribution
system.tol2bus.trans_dist::ReadExReq           659379                       # Transaction distribution
system.tol2bus.trans_dist::ReadExResp          659379                       # Transaction distribution
system.tol2bus.trans_dist::ReadCleanReq           319                       # Transaction distribution
system.tol2bus.trans_dist::ReadSharedReq         1565                       # Transaction distribution
system.tol2bus.pkt_count_system.cpu.icache.mem_side::system.l2.cpu_side          893                       # Packet count per connected master and slave (bytes)
system.tol2bus.pkt_count_system.cpu.dcache.mem_side::system.l2.cpu_side      1982704                       # Packet count per connected master and slave (bytes)
system.tol2bus.pkt_count::total               1983597                       # Packet count per connected master and slave (bytes)
system.tol2bus.pkt_size_system.cpu.icache.mem_side::system.l2.cpu_side       293888                       # Cumulative packet size per connected master and slave (bytes)
system.tol2bus.pkt_size_system.cpu.dcache.mem_side::system.l2.cpu_side    675953664                       # Cumulative packet size per connected master and slave (bytes)
system.tol2bus.pkt_size::total              676247552                       # Cumulative packet size per connected master and slave (bytes)
system.tol2bus.snoops                          654253                       # Total snoops (count)
system.tol2bus.snoopTraffic                 334789632                       # Total snoop traffic (bytes)
system.tol2bus.snoop_fanout::samples          1315516                       # Request fanout histogram
system.tol2bus.snoop_fanout::mean            0.000140                       # Request fanout histogram
system.tol2bus.snoop_fanout::stdev           0.011826                       # Request fanout histogram
system.tol2bus.snoop_fanout::underflows             0      0.00%      0.00% # Request fanout histogram
system.tol2bus.snoop_fanout::0                1315332     99.99%     99.99% # Request fanout histogram
system.tol2bus.snoop_fanout::1                    184      0.01%    100.00% # Request fanout histogram
system.tol2bus.snoop_fanout::2                      0      0.00%    100.00% # Request fanout histogram
system.tol2bus.snoop_fanout::overflows              0      0.00%    100.00% # Request fanout histogram
system.tol2bus.snoop_fanout::min_value              0                       # Request fanout histogram
system.tol2bus.snoop_fanout::max_value              1                       # Request fanout histogram
system.tol2bus.snoop_fanout::total            1315516                       # Request fanout histogram
system.tol2bus.reqLayer0.occupancy         5937431000                       # Layer occupancy (ticks)
system.tol2bus.reqLayer0.utilization              3.0                       # Layer utilization (%)
system.tol2bus.respLayer1.occupancy        5618026994                       # Layer occupancy (ticks)
system.tol2bus.respLayer1.utilization             2.8                       # Layer utilization (%)
system.tol2bus.respLayer0.occupancy           2711999                       # Layer occupancy (ticks)
system.tol2bus.respLayer0.utilization             0.0                       # Layer utilization (%)
system.voltage_domain.voltage                       1                       # Voltage in Volts
system.clk_domain.clock                          1000                       # Clock period in ticks
system.l2.pwrStateResidencyTicks::UNDEFINED 197208538000                       # Cumulative time (in ticks) in various power states
system.l2.demand_hits::.cpu.inst                  102                       # number of demand (read+write) hits
system.l2.demand_hits::.cpu.data                 2862                       # number of demand (read+write) hits
system.l2.demand_hits::total                     2964                       # number of demand (read+write) hits
system.l2.overall_hits::.cpu.inst                 102                       # number of overall hits
system.l2.overall_hits::.cpu.data                2862                       # number of overall hits
system.l2.overall_hits::total                    2964                       # number of overall hits
system.l2.demand_misses::.cpu.inst                217                       # number of demand (read+write) misses
system.l2.demand_misses::.cpu.data             658082                       # number of demand (read+write) misses
system.l2.demand_misses::total                 658299                       # number of demand (read+write) misses
system.l2.overall_misses::.cpu.inst               217                       # number of overall misses
system.l2.overall_misses::.cpu.data            658082                       # number of overall misses
system.l2.overall_misses::total                658299                       # number of overall misses
system.l2.demand_miss_latency::.cpu.inst     28856000                       # number of demand (read+write) miss cycles
system.l2.demand_miss_latency::.cpu.data  91375510000                       # number of demand (read+write) miss cycles
system.l2.demand_miss_latency::total      91404366000                       # number of demand (read+write) miss cycles
system.l2.overall_miss_latency::.cpu.inst     28856000                       # number of overall miss cycles
system.l2.overall_miss_latency::.cpu.data  91375510000                       # number of overall miss cycles
system.l2.overall_miss_latency::total     91404366000                       # number of overall miss cycles
system.l2.demand_accesses::.cpu.inst              319                       # number of demand (read+write) accesses
system.l2.demand_accesses::.cpu.data           660944                       # number of demand (read+write) accesses
system.l2.demand_accesses::total               661263                       # number of demand (read+write) accesses
system.l2.overall_accesses::.cpu.inst             319                       # number of overall (read+write) accesses
system.l2.overall_accesses::.cpu.data          660944                       # number of overall (read+write) accesses
system.l2.overall_accesses::total              661263                       # number of overall (read+write) accesses
system.l2.demand_miss_rate::.cpu.inst        0.680251                       # miss rate for demand accesses
system.l2.demand_miss_rate::.cpu.data        0.995670                       # miss rate for demand accesses
system.l2.demand_miss_rate::total            0.995518                       # miss rate for demand accesses
system.l2.overall_miss_rate::.cpu.inst       0.680251                       # miss rate for overall accesses
system.l2.overall_miss_rate::.cpu.data       0.995670                       # miss rate for overall accesses
system.l2.overall_miss_rate::total           0.995518                       # miss rate for overall accesses
system.l2.demand_avg_miss_latency::.cpu.inst 132976.958525                       # average overall miss latency
system.l2.demand_avg_miss_latency::.cpu.data 138851.252579                       # average overall miss latency
system.l2.demand_avg_miss_latency::total 138849.316192                       # average overall miss latency
system.l2.overall_avg_miss_latency::.cpu.inst 132976.958525                       # average overall miss latency
system.l2.overall_avg_miss_latency::.cpu.data 138851.252579                       # average overall miss latency
system.l2.overall_avg_miss_latency::total 138849.316192                       # average overall miss latency
system.l2.blocked_cycles::no_mshrs                  0                       # number of cycles access was blocked
system.l2.blocked_cycles::no_targets                0                       # number of cycles access was blocked
system.l2.blocked::no_mshrs                         0                       # number of cycles access was blocked
system.l2.blocked::no_targets                       0                       # number of cycles access was blocked
system.l2.avg_blocked_cycles::no_mshrs            nan                       # average number of cycles each access was blocked
system.l2.avg_blocked_cycles::no_targets          nan                       # average number of cycles each access was blocked
system.l2.writebacks::.writebacks              653886                       # number of writebacks
system.l2.writebacks::total                    653886                       # number of writebacks
system.l2.demand_mshr_hits::.cpu.inst               1                       # number of demand (read+write) MSHR hits
system.l2.demand_mshr_hits::.cpu.data               6                       # number of demand (read+write) MSHR hits
system.l2.demand_mshr_hits::total                   7                       # number of demand (read+write) MSHR hits
system.l2.overall_mshr_hits::.cpu.inst              1                       # number of overall MSHR hits
system.l2.overall_mshr_hits::.cpu.data              6                       # number of overall MSHR hits
system.l2.overall_mshr_hits::total                  7                       # number of overall MSHR hits
system.l2.demand_mshr_misses::.cpu.inst           216                       # number of demand (read+write) MSHR misses
system.l2.demand_mshr_misses::.cpu.data        658076                       # number of demand (read+write) MSHR misses
system.l2.demand_mshr_misses::total            658292                       # number of demand (read+write) MSHR misses
system.l2.overall_mshr_misses::.cpu.inst          216                       # number of overall MSHR misses
system.l2.overall_mshr_misses::.cpu.data       658076                       # number of overall MSHR misses
system.l2.overall_mshr_misses::total           658292                       # number of overall MSHR misses
system.l2.demand_mshr_miss_latency::.cpu.inst     26579500                       # number of demand (read+write) MSHR miss cycles
system.l2.demand_mshr_miss_latency::.cpu.data  84794117000                       # number of demand (read+write) MSHR miss cycles
system.l2.demand_mshr_miss_latency::total  84820696500                       # number of demand (read+write) MSHR miss cycles
system.l2.overall_mshr_miss_latency::.cpu.inst     26579500                       # number of overall MSHR miss cycles
system.l2.overall_mshr_miss_latency::.cpu.data  84794117000                       # number of overall MSHR miss cycles
system.l2.overall_mshr_miss_latency::total  84820696500                       # number of overall MSHR miss cycles
system.l2.demand_mshr_miss_rate::.cpu.inst     0.677116                       # mshr miss rate for demand accesses
system.l2.demand_mshr_miss_rate::.cpu.data     0.995661                       # mshr miss rate for demand accesses
system.l2.demand_mshr_miss_rate::total       0.995507                       # mshr miss rate for demand accesses
system.l2.overall_mshr_miss_rate::.cpu.inst     0.677116                       # mshr miss rate for overall accesses
system.l2.overall_mshr_miss_rate::.cpu.data     0.995661                       # mshr miss rate for overall accesses
system.l2.overall_mshr_miss_rate::total      0.995507                       # mshr miss rate for overall accesses
system.l2.demand_avg_mshr_miss_latency::.cpu.inst 123053.240741                       # average overall mshr miss latency
system.l2.demand_avg_mshr_miss_latency::.cpu.data 128851.556659                       # average overall mshr miss latency
system.l2.demand_avg_mshr_miss_latency::total 128849.654105                       # average overall mshr miss latency
system.l2.overall_avg_mshr_miss_latency::.cpu.inst 123053.240741                       # average overall mshr miss latency
system.l2.overall_avg_mshr_miss_latency::.cpu.data 128851.556659                       # average overall mshr miss latency
system.l2.overall_avg_mshr_miss_latency::total 128849.654105                       # average overall mshr miss latency
system.l2.replacements                         654253                       # number of replacements
system.l2.WritebackDirty_hits::.writebacks       659278                       # number of WritebackDirty hits
system.l2.WritebackDirty_hits::total           659278                       # number of WritebackDirty hits
system.l2.WritebackDirty_accesses::.writebacks       659278                       # number of WritebackDirty accesses(hits+misses)
system.l2.WritebackDirty_accesses::total       659278                       # number of WritebackDirty accesses(hits+misses)
system.l2.WritebackClean_hits::.writebacks          230                       # number of WritebackClean hits
system.l2.WritebackClean_hits::total              230                       # number of WritebackClean hits
system.l2.WritebackClean_accesses::.writebacks          230                       # number of WritebackClean accesses(hits+misses)
system.l2.WritebackClean_accesses::total          230                       # number of WritebackClean accesses(hits+misses)
system.l2.ReadExReq_hits::.cpu.data              1412                       # number of ReadExReq hits
system.l2.ReadExReq_hits::total                  1412                       # number of ReadExReq hits
system.l2.ReadExReq_misses::.cpu.data          657967                       # number of ReadExReq misses
system.l2.ReadExReq_misses::total              657967                       # number of ReadExReq misses
system.l2.ReadExReq_miss_latency::.cpu.data  91358524000                       # number of ReadExReq miss cycles
system.l2.ReadExReq_miss_latency::total   91358524000                       # number of ReadExReq miss cycles
system.l2.ReadExReq_accesses::.cpu.data        659379                       # number of ReadExReq accesses(hits+misses)
system.l2.ReadExReq_accesses::total            659379                       # number of ReadExReq accesses(hits+misses)
system.l2.ReadExReq_miss_rate::.cpu.data     0.997859                       # miss rate for ReadExReq accesses
system.l2.ReadExReq_miss_rate::total         0.997859                       # miss rate for ReadExReq accesses
system.l2.ReadExReq_avg_miss_latency::.cpu.data 138849.705228                       # average ReadExReq miss latency
system.l2.ReadExReq_avg_miss_latency::total 138849.705228                       # average ReadExReq miss latency
system.l2.ReadExReq_mshr_misses::.cpu.data       657967                       # number of ReadExReq MSHR misses
system.l2.ReadExReq_mshr_misses::total         657967                       # number of ReadExReq MSHR misses
system.l2.ReadExReq_mshr_miss_latency::.cpu.data  84778854000                       # number of ReadExReq MSHR miss cycles
system.l2.ReadExReq_mshr_miss_latency::total  84778854000                       # number of ReadExReq MSHR miss cycles
system.l2.ReadExReq_mshr_miss_rate::.cpu.data     0.997859                       # mshr miss rate for ReadExReq accesses
system.l2.ReadExReq_mshr_miss_rate::total     0.997859                       # mshr miss rate for ReadExReq accesses
system.l2.ReadExReq_avg_mshr_miss_latency::.cpu.data 128849.705228                       # average ReadExReq mshr miss latency
system.l2.ReadExReq_avg_mshr_miss_latency::total 128849.705228                       # average ReadExReq mshr miss latency
system.l2.ReadCleanReq_hits::.cpu.inst            102                       # number of ReadCleanReq hits
system.l2.ReadCleanReq_hits::total                102                       # number of ReadCleanReq hits
system.l2.ReadCleanReq_misses::.cpu.inst          217                       # number of ReadCleanReq misses
system.l2.ReadCleanReq_misses::total              217                       # number of ReadCleanReq misses
system.l2.ReadCleanReq_miss_latency::.cpu.inst     28856000                       # number of ReadCleanReq miss cycles
system.l2.ReadCleanReq_miss_latency::total     28856000                       # number of ReadCleanReq miss cycles
system.l2.ReadCleanReq_accesses::.cpu.inst          319                       # number of ReadCleanReq accesses(hits+misses)
system.l2.ReadCleanReq_accesses::total            319                       # number of ReadCleanReq accesses(hits+misses)
system.l2.ReadCleanReq_miss_rate::.cpu.inst     0.680251                       # miss rate for ReadCleanReq accesses
system.l2.ReadCleanReq_miss_rate::total      0.680251                       # miss rate for ReadCleanReq accesses
system.l2.ReadCleanReq_avg_miss_latency::.cpu.inst 132976.958525                       # average ReadCleanReq miss latency
system.l2.ReadCleanReq_avg_miss_latency::total 132976.958525                       # average ReadCleanReq miss latency
system.l2.ReadCleanReq_mshr_hits::.cpu.inst            1                       # number of ReadCleanReq MSHR hits
system.l2.ReadCleanReq_mshr_hits::total             1                       # number of ReadCleanReq MSHR hits
system.l2.ReadCleanReq_mshr_misses::.cpu.inst          216                       # number of ReadCleanReq MSHR misses
system.l2.ReadCleanReq_mshr_misses::total          216                       # number of ReadCleanReq MSHR misses
system.l2.ReadCleanReq_mshr_miss_latency::.cpu.inst     26579500                       # number of ReadCleanReq MSHR miss cycles
system.l2.ReadCleanReq_mshr_miss_latency::total     26579500                       # number of ReadCleanReq MSHR miss cycles
system.l2.ReadCleanReq_mshr_miss_rate::.cpu.inst     0.677116                       # mshr miss rate for ReadCleanReq accesses
system.l2.ReadCleanReq_mshr_miss_rate::total     0.677116                       # mshr miss rate for ReadCleanReq accesses
system.l2.ReadCleanReq_avg_mshr_miss_latency::.cpu.inst 123053.240741                       # average ReadCleanReq mshr miss latency
system.l2.ReadCleanReq_avg_mshr_miss_latency::total 123053.240741                       # average ReadCleanReq mshr miss latency
system.l2.ReadSharedReq_hits::.cpu.data          1450                       # number of ReadSharedReq hits
system.l2.ReadSharedReq_hits::total              1450                       # number of ReadSharedReq hits
system.l2.ReadSharedReq_misses::.cpu.data          115                       # number of ReadSharedReq misses
system.l2.ReadSharedReq_misses::total             115                       # number of ReadSharedReq misses
system.l2.ReadSharedReq_miss_latency::.cpu.data     16986000                       # number of ReadSharedReq miss cycles
system.l2.ReadSharedReq_miss_latency::total     16986000                       # number of ReadSharedReq miss cycles
system.l2.ReadSharedReq_accesses::.cpu.data         1565                       # number of ReadSharedReq accesses(hits+misses)
system.l2.ReadSharedReq_accesses::total          1565                       # number of ReadSharedReq accesses(hits+misses)
system.l2.ReadSharedReq_miss_rate::.cpu.data     0.073482                       # miss rate for ReadSharedReq accesses
system.l2.ReadSharedReq_miss_rate::total     0.073482                       # miss rate for ReadSharedReq accesses
system.l2.ReadSharedReq_avg_miss_latency::.cpu.data 147704.347826                       # average ReadSharedReq miss latency
system.l2.ReadSharedReq_avg_miss_latency::total 147704.347826                       # average ReadSharedReq miss latency
system.l2.ReadSharedReq_mshr_hits::.cpu.data            6                       # number of ReadSharedReq MSHR hits
system.l2.ReadSharedReq_mshr_hits::total            6                       # number of ReadSharedReq MSHR hits
system.l2.ReadSharedReq_mshr_misses::.cpu.data          109                       # number of ReadSharedReq MSHR misses
system.l2.ReadSharedReq_mshr_misses::total          109                       # number of ReadSharedReq MSHR misses
system.l2.ReadSharedReq_mshr_miss_latency::.cpu.data     15263000                       # number of ReadSharedReq MSHR miss cycles
system.l2.ReadSharedReq_mshr_miss_latency::total     15263000                       # number of ReadSharedReq MSHR miss cycles
system.l2.ReadSharedReq_mshr_miss_rate::.cpu.data     0.069649                       # mshr miss rate for ReadSharedReq accesses
system.l2.ReadSharedReq_mshr_miss_rate::total     0.069649                       # mshr miss rate for ReadSharedReq accesses
system.l2.ReadSharedReq_avg_mshr_miss_latency::.cpu.data 140027.522936                       # average ReadSharedReq mshr miss latency
system.l2.ReadSharedReq_avg_mshr_miss_latency::total 140027.522936                       # average ReadSharedReq mshr miss latency
system.l2.tags.pwrStateResidencyTicks::UNDEFINED 197208538000                       # Cumulative time (in ticks) in various power states
system.l2.tags.tagsinuse                  4032.468728                       # Cycle average of tags in use
system.l2.tags.total_refs                     1322270                       # Total number of references to valid blocks.
system.l2.tags.sampled_refs                    658349                       # Sample count of references to valid blocks.
system.l2.tags.avg_refs                      2.008464                       # Average number of references to valid blocks.
system.l2.tags.warmup_cycle                    112000                       # Cycle when the warmup percentage was hit.
system.l2.tags.occ_blocks::.writebacks       0.323287                       # Average occupied blocks per requestor
system.l2.tags.occ_blocks::.cpu.inst         3.062934                       # Average occupied blocks per requestor
system.l2.tags.occ_blocks::.cpu.data      4029.082508                       # Average occupied blocks per requestor
system.l2.tags.occ_percent::.writebacks      0.000079                       # Average percentage of cache occupancy
system.l2.tags.occ_percent::.cpu.inst        0.000748                       # Average percentage of cache occupancy
system.l2.tags.occ_percent::.cpu.data        0.983663                       # Average percentage of cache occupancy
system.l2.tags.occ_percent::total            0.984489                       # Average percentage of cache occupancy
system.l2.tags.occ_task_id_blocks::1024          4096                       # Occupied blocks per task id
system.l2.tags.age_task_id_blocks_1024::0           35                       # Occupied blocks per task id
system.l2.tags.age_task_id_blocks_1024::1          303                       # Occupied blocks per task id
system.l2.tags.age_task_id_blocks_1024::2         3048                       # Occupied blocks per task id
system.l2.tags.age_task_id_blocks_1024::3          710                       # Occupied blocks per task id
system.l2.tags.occ_task_id_percent::1024            1                       # Percentage of cache occupancy per task id
system.l2.tags.tag_accesses                  11236565                       # Number of tag accesses
system.l2.tags.data_accesses                 11236565                       # Number of data accesses
system.cpu_voltage_domain.voltage                   1                       # Voltage in Volts
system.mem_ctrls.pwrStateResidencyTicks::UNDEFINED 197208538000                       # Cumulative time (in ticks) in various power states
system.mem_ctrls.bytes_read::.cpu.inst         110592                       # Number of bytes read from this memory
system.mem_ctrls.bytes_read::.cpu.data      336934912                       # Number of bytes read from this memory
system.mem_ctrls.bytes_read::total          337045504                       # Number of bytes read from this memory
system.mem_ctrls.bytes_inst_read::.cpu.inst       110592                       # Number of instructions bytes read from this memory
system.mem_ctrls.bytes_inst_read::total        110592                       # Number of instructions bytes read from this memory
system.mem_ctrls.bytes_written::.writebacks    334789632                       # Number of bytes written to this memory
system.mem_ctrls.bytes_written::total       334789632                       # Number of bytes written to this memory
system.mem_ctrls.num_reads::.cpu.inst             216                       # Number of read requests responded to by this memory
system.mem_ctrls.num_reads::.cpu.data          658076                       # Number of read requests responded to by this memory
system.mem_ctrls.num_reads::total              658292                       # Number of read requests responded to by this memory
system.mem_ctrls.num_writes::.writebacks       653886                       # Number of write requests responded to by this memory
system.mem_ctrls.num_writes::total             653886                       # Number of write requests responded to by this memory
system.mem_ctrls.bw_read::.cpu.inst            560787                       # Total read bandwidth from this memory (bytes/s)
system.mem_ctrls.bw_read::.cpu.data        1708520916                       # Total read bandwidth from this memory (bytes/s)
system.mem_ctrls.bw_read::total            1709081703                       # Total read bandwidth from this memory (bytes/s)
system.mem_ctrls.bw_inst_read::.cpu.inst       560787                       # Instruction read bandwidth from this memory (bytes/s)
system.mem_ctrls.bw_inst_read::total           560787                       # Instruction read bandwidth from this memory (bytes/s)
system.mem_ctrls.bw_write::.writebacks     1697642685                       # Write bandwidth from this memory (bytes/s)
system.mem_ctrls.bw_write::total           1697642685                       # Write bandwidth from this memory (bytes/s)
system.mem_ctrls.bw_total::.writebacks     1697642685                       # Total bandwidth to/from this memory (bytes/s)
system.mem_ctrls.bw_total::.cpu.inst           560787                       # Total bandwidth to/from this memory (bytes/s)
system.mem_ctrls.bw_total::.cpu.data       1708520916                       # Total bandwidth to/from this memory (bytes/s)
system.mem_ctrls.bw_total::total           3406724388                       # Total bandwidth to/from this memory (bytes/s)
system.mem_ctrls.avgPriority_.writebacks::samples   5231088.00                       # Average QoS priority value for accepted requests
system.mem_ctrls.avgPriority_.cpu.inst::samples      1728.00                       # Average QoS priority value for accepted requests
system.mem_ctrls.avgPriority_.cpu.data::samples   5264608.00                       # Average QoS priority value for accepted requests
system.mem_ctrls.priorityMinLatency      0.000000018750                       # per QoS priority minimum request to response latency (s)
system.mem_ctrls.priorityMaxLatency      0.000191208750                       # per QoS priority maximum request to response latency (s)
system.mem_ctrls.numReadWriteTurnArounds       216428                       # Number of turnarounds from READ to WRITE
system.mem_ctrls.numWriteReadTurnArounds       216428                       # Number of turnarounds from WRITE to READ
system.mem_ctrls.numStayReadState             6501913                       # Number of times bus staying in READ state
system.mem_ctrls.numStayWriteState            5014776                       # Number of times bus staying in WRITE state
system.mem_ctrls.readReqs                      658292                       # Number of read requests accepted
system.mem_ctrls.writeReqs                     653886                       # Number of write requests accepted
system.mem_ctrls.readBursts                   5266336                       # Number of DRAM read bursts, including those serviced by the write queue
system.mem_ctrls.writeBursts                  5231088                       # Number of DRAM write bursts, including those merged in the write queue
system.mem_ctrls.servicedByWrQ                      0                       # Number of DRAM read bursts serviced by the write queue
system.mem_ctrls.mergedWrBursts                     0                       # Number of DRAM write bursts merged with an existing one
system.mem_ctrls.neitherReadNorWriteReqs            0                       # Number of requests that are neither read nor write
system.mem_ctrls.perBankRdBursts::0            329232                       # Per bank write bursts
system.mem_ctrls.perBankRdBursts::1            329272                       # Per bank write bursts
system.mem_ctrls.perBankRdBursts::2            329304                       # Per bank write bursts
system.mem_ctrls.perBankRdBursts::3            329224                       # Per bank write bursts
system.mem_ctrls.perBankRdBursts::4            329080                       # Per bank write bursts
system.mem_ctrls.perBankRdBursts::5            329192                       # Per bank write bursts
system.mem_ctrls.perBankRdBursts::6            329208                       # Per bank write bursts
system.mem_ctrls.perBankRdBursts::7            329040                       # Per bank write bursts
system.mem_ctrls.perBankRdBursts::8            328952                       # Per bank write bursts
system.mem_ctrls.perBankRdBursts::9            328992                       # Per bank write bursts
system.mem_ctrls.perBankRdBursts::10           328944                       # Per bank write bursts
system.mem_ctrls.perBankRdBursts::11           329232                       # Per bank write bursts
system.mem_ctrls.perBankRdBursts::12           329248                       # Per bank write bursts
system.mem_ctrls.perBankRdBursts::13           329184                       # Per bank write bursts
system.mem_ctrls.perBankRdBursts::14           329248                       # Per bank write bursts
system.mem_ctrls.perBankRdBursts::15           328984                       # Per bank write bursts
system.mem_ctrls.perBankWrBursts::0            326920                       # Per bank write bursts
system.mem_ctrls.perBankWrBursts::1            327025                       # Per bank write bursts
system.mem_ctrls.perBankWrBursts::2            327120                       # Per bank write bursts
system.mem_ctrls.perBankWrBursts::3            327056                       # Per bank write bursts
system.mem_ctrls.perBankWrBursts::4            327000                       # Per bank write bursts
system.mem_ctrls.perBankWrBursts::5            327032                       # Per bank write bursts
system.mem_ctrls.perBankWrBursts::6            327024                       # Per bank write bursts
system.mem_ctrls.perBankWrBursts::7            326912                       # Per bank write bursts
system.mem_ctrls.perBankWrBursts::8            326784                       # Per bank write bursts
system.mem_ctrls.perBankWrBursts::9            326784                       # Per bank write bursts
system.mem_ctrls.perBankWrBursts::10           326720                       # Per bank write bursts
system.mem_ctrls.perBankWrBursts::11           326976                       # Per bank write bursts
system.mem_ctrls.perBankWrBursts::12           326976                       # Per bank write bursts
system.mem_ctrls.perBankWrBursts::13           326952                       # Per bank write bursts
system.mem_ctrls.perBankWrBursts::14           326928                       # Per bank write bursts
system.mem_ctrls.perBankWrBursts::15           326848                       # Per bank write bursts
system.mem_ctrls.avgRdQLen                       8.01                       # Average read queue length when enqueuing
system.mem_ctrls.avgWrQLen                      31.03                       # Average write queue length when enqueuing
system.mem_ctrls.totQLat                 261812024250                       # Total ticks spent queuing
system.mem_ctrls.totBusLat                26331680000                       # Total ticks spent in databus transfers
system.mem_ctrls.totMemAccLat            360555824250                       # Total ticks spent from burst creation until serviced by the DRAM
system.mem_ctrls.avgQLat                     49714.27                       # Average queueing delay per DRAM burst
system.mem_ctrls.avgBusLat                    5000.00                       # Average bus latency per DRAM burst
system.mem_ctrls.avgMemAccLat                68464.27                       # Average memory access latency per DRAM burst
system.mem_ctrls.numRdRetry                         0                       # Number of times read queue was full causing retry
system.mem_ctrls.numWrRetry                         0                       # Number of times write queue was full causing retry
system.mem_ctrls.readRowHits                  4817342                       # Number of row buffer hits during reads
system.mem_ctrls.writeRowHits                 4795702                       # Number of row buffer hits during writes
system.mem_ctrls.readRowHitRate                 91.47                       # Row buffer hit rate for reads
system.mem_ctrls.writeRowHitRate                91.68                       # Row buffer hit rate for writes
system.mem_ctrls.readPktSize::0                     0                       # Read request sizes (log2)
system.mem_ctrls.readPktSize::1                     0                       # Read request sizes (log2)
system.mem_ctrls.readPktSize::2                     0                       # Read request sizes (log2)
system.mem_ctrls.readPktSize::3                     0                       # Read request sizes (log2)
system.mem_ctrls.readPktSize::4                     0                       # Read request sizes (log2)
system.mem_ctrls.readPktSize::5                     0                       # Read request sizes (log2)
system.mem_ctrls.readPktSize::6               5266336                       # Read request sizes (log2)
system.mem_ctrls.writePktSize::0                    0                       # Write request sizes (log2)
system.mem_ctrls.writePktSize::1                    0                       # Write request sizes (log2)
system.mem_ctrls.writePktSize::2                    0                       # Write request sizes (log2)
system.mem_ctrls.writePktSize::3                    0                       # Write request sizes (log2)
system.mem_ctrls.writePktSize::4                    0                       # Write request sizes (log2)
system.mem_ctrls.writePktSize::5                    0                       # Write request sizes (log2)
system.mem_ctrls.writePktSize::6              5231088                       # Write request sizes (log2)
system.mem_ctrls.rdQLenPdf::0                  658160                       # What read queue length does an incoming req see
system.mem_ctrls.rdQLenPdf::1                  658160                       # What read queue length does an incoming req see
system.mem_ctrls.rdQLenPdf::2                  658162                       # What read queue length does an incoming req see
system.mem_ctrls.rdQLenPdf::3                  658163                       # What read queue length does an incoming req see
system.mem_ctrls.rdQLenPdf::4                  658164                       # What read queue length does an incoming req see
system.mem_ctrls.rdQLenPdf::5                  658164                       # What read queue length does an incoming req see
system.mem_ctrls.rdQLenPdf::6                  658167                       # What read queue length does an incoming req see
system.mem_ctrls.rdQLenPdf::7                  658167                       # What read queue length does an incoming req see
system.mem_ctrls.rdQLenPdf::8                     129                       # What read queue length does an incoming req see
system.mem_ctrls.rdQLenPdf::9                     130                       # What read queue length does an incoming req see
system.mem_ctrls.rdQLenPdf::10                    128                       # What read queue length does an incoming req see
system.mem_ctrls.rdQLenPdf::11                    127                       # What read queue length does an incoming req see
system.mem_ctrls.rdQLenPdf::12                    126                       # What read queue length does an incoming req see
system.mem_ctrls.rdQLenPdf::13                    126                       # What read queue length does an incoming req see
system.mem_ctrls.rdQLenPdf::14                    123                       # What read queue length does an incoming req see
system.mem_ctrls.rdQLenPdf::15                    123                       # What read queue length does an incoming req see
system.mem_ctrls.rdQLenPdf::16                      3                       # What read queue length does an incoming req see
system.mem_ctrls.rdQLenPdf::17                      2                       # What read queue length does an incoming req see
system.mem_ctrls.rdQLenPdf::18                      2                       # What read queue length does an incoming req see
system.mem_ctrls.rdQLenPdf::19                      2                       # What read queue length does an incoming req see
system.mem_ctrls.rdQLenPdf::20                      2                       # What read queue length does an incoming req see
system.mem_ctrls.rdQLenPdf::21                      2                       # What read queue length does an incoming req see
system.mem_ctrls.rdQLenPdf::22                      2                       # What read queue length does an incoming req see
system.mem_ctrls.rdQLenPdf::23                      2                       # What read queue length does an incoming req see
system.mem_ctrls.rdQLenPdf::24                      0                       # What read queue length does an incoming req see
system.mem_ctrls.rdQLenPdf::25                      0                       # What read queue length does an incoming req see
system.mem_ctrls.rdQLenPdf::26                      0                       # What read queue length does an incoming req see
system.mem_ctrls.rdQLenPdf::27                      0                       # What read queue length does an incoming req see
system.mem_ctrls.rdQLenPdf::28                      0                       # What read queue length does an incoming req see
system.mem_ctrls.rdQLenPdf::29                      0                       # What read queue length does an incoming req see
system.mem_ctrls.rdQLenPdf::30                      0                       # What read queue length does an incoming req see
system.mem_ctrls.rdQLenPdf::31                      0                       # What read queue length does an incoming req see
system.mem_ctrls.wrQLenPdf::0                       1                       # What write queue length does an incoming req see
system.mem_ctrls.wrQLenPdf::1                       1                       # What write queue length does an incoming req see
system.mem_ctrls.wrQLenPdf::2                       1                       # What write queue length does an incoming req see
system.mem_ctrls.wrQLenPdf::3                       1                       # What write queue length does an incoming req see
system.mem_ctrls.wrQLenPdf::4                       1                       # What write queue length does an incoming req see
system.mem_ctrls.wrQLenPdf::5                       1                       # What write queue length does an incoming req see
system.mem_ctrls.wrQLenPdf::6                       1                       # What write queue length does an incoming req see
system.mem_ctrls.wrQLenPdf::7                       1                       # What write queue length does an incoming req see
system.mem_ctrls.wrQLenPdf::8                       1                       # What write queue length does an incoming req see
system.mem_ctrls.wrQLenPdf::9                       1                       # What write queue length does an incoming req see
system.mem_ctrls.wrQLenPdf::10                      1                       # What write queue length does an incoming req see
system.mem_ctrls.wrQLenPdf::11                      1                       # What write queue length does an incoming req see
system.mem_ctrls.wrQLenPdf::12                      1                       # What write queue length does an incoming req see
system.mem_ctrls.wrQLenPdf::13                      1                       # What write queue length does an incoming req see
system.mem_ctrls.wrQLenPdf::14                      1                       # What write queue length does an incoming req see
system.mem_ctrls.wrQLenPdf::15                 216285                       # What write queue length does an incoming req see
system.mem_ctrls.wrQLenPdf::16                 216301                       # What write queue length does an incoming req see
system.mem_ctrls.wrQLenPdf::17                 216307                       # What write queue length does an incoming req see
system.mem_ctrls.wrQLenPdf::18                 216309                       # What write queue length does an incoming req see
system.mem_ctrls.wrQLenPdf::19                 216313                       # What write queue length does an incoming req see
system.mem_ctrls.wrQLenPdf::20                 216318                       # What write queue length does an incoming req see
system.mem_ctrls.wrQLenPdf::21                 216341                       # What write queue length does an incoming req see
system.mem_ctrls.wrQLenPdf::22                 216362                       # What write queue length does an incoming req see
system.mem_ctrls.wrQLenPdf::23                 218930                       # What write queue length does an incoming req see
system.mem_ctrls.wrQLenPdf::24                 218941                       # What write queue length does an incoming req see
system.mem_ctrls.wrQLenPdf::25                 218948                       # What write queue length does an incoming req see
system.mem_ctrls.wrQLenPdf::26                 218955                       # What write queue length does an incoming req see
system.mem_ctrls.wrQLenPdf::27                 218959                       # What write queue length does an incoming req see
system.mem_ctrls.wrQLenPdf::28                 221136                       # What write queue length does an incoming req see
system.mem_ctrls.wrQLenPdf::29                 221145                       # What write queue length does an incoming req see
system.mem_ctrls.wrQLenPdf::30                 221152                       # What write queue length does an incoming req see
system.mem_ctrls.wrQLenPdf::31                 218642                       # What write queue length does an incoming req see
system.mem_ctrls.wrQLenPdf::32                 218635                       # What write queue length does an incoming req see
system.mem_ctrls.wrQLenPdf::33                 218622                       # What write queue length does an incoming req see
system.mem_ctrls.wrQLenPdf::34                 218613                       # What write queue length does an incoming req see
system.mem_ctrls.wrQLenPdf::35                 218606                       # What write queue length does an incoming req see
system.mem_ctrls.wrQLenPdf::36                 216428                       # What write queue length does an incoming req see
system.mem_ctrls.wrQLenPdf::37                 216397                       # What write queue length does an incoming req see
system.mem_ctrls.wrQLenPdf::38                 216369                       # What write queue length does an incoming req see
system.mem_ctrls.wrQLenPdf::39                     28                       # What write queue length does an incoming req see
system.mem_ctrls.wrQLenPdf::40                      7                       # What write queue length does an incoming req see
system.mem_ctrls.wrQLenPdf::41                      7                       # What write queue length does an incoming req see
system.mem_ctrls.wrQLenPdf::42                      7                       # What write queue length does an incoming req see
system.mem_ctrls.wrQLenPdf::43                      6                       # What write queue length does an incoming req see
system.mem_ctrls.wrQLenPdf::44                      2                       # What write queue length does an incoming req see
system.mem_ctrls.wrQLenPdf::45                      1                       # What write queue length does an incoming req see
system.mem_ctrls.wrQLenPdf::46                      1                       # What write queue length does an incoming req see
system.mem_ctrls.wrQLenPdf::47                      0                       # What write queue length does an incoming req see
system.mem_ctrls.wrQLenPdf::48                      0                       # What write queue length does an incoming req see
system.mem_ctrls.wrQLenPdf::49                      0                       # What write queue length does an incoming req see
system.mem_ctrls.wrQLenPdf::50                      0                       # What write queue length does an incoming req see
system.mem_ctrls.wrQLenPdf::51                      0                       # What write queue length does an incoming req see
system.mem_ctrls.wrQLenPdf::52                      0                       # What write queue length does an incoming req see
system.mem_ctrls.wrQLenPdf::53                      0                       # What write queue length does an incoming req see
system.mem_ctrls.wrQLenPdf::54                      0                       # What write queue length does an incoming req see
system.mem_ctrls.wrQLenPdf::55                      0                       # What write queue length does an incoming req see
system.mem_ctrls.wrQLenPdf::56                      0                       # What write queue length does an incoming req see
system.mem_ctrls.wrQLenPdf::57                      0                       # What write queue length does an incoming req see
system.mem_ctrls.wrQLenPdf::58                      0                       # What write queue length does an incoming req see
system.mem_ctrls.wrQLenPdf::59                      0                       # What write queue length does an incoming req see
system.mem_ctrls.wrQLenPdf::60                      0                       # What write queue length does an incoming req see
system.mem_ctrls.wrQLenPdf::61                      0                       # What write queue length does an incoming req see
system.mem_ctrls.wrQLenPdf::62                      0                       # What write queue length does an incoming req see
system.mem_ctrls.wrQLenPdf::63                      0                       # What write queue length does an incoming req see
system.mem_ctrls.bytesPerActivate::samples       884347                       # Bytes accessed per row activation
system.mem_ctrls.bytesPerActivate::mean    759.693035                       # Bytes accessed per row activation
system.mem_ctrls.bytesPerActivate::gmean   681.596020                       # Bytes accessed per row activation
system.mem_ctrls.bytesPerActivate::stdev   283.131326                       # Bytes accessed per row activation
system.mem_ctrls.bytesPerActivate::0-127        27511      3.11%      3.11% # Bytes accessed per row activation
system.mem_ctrls.bytesPerActivate::128-255         2207      0.25%      3.36% # Bytes accessed per row activation
system.mem_ctrls.bytesPerActivate::256-383         2546      0.29%      3.65% # Bytes accessed per row activation
system.mem_ctrls.bytesPerActivate::384-511        28962      3.27%      6.92% # Bytes accessed per row activation
system.mem_ctrls.bytesPerActivate::512-639       363814     41.14%     48.06% # Bytes accessed per row activation
system.mem_ctrls.bytesPerActivate::640-767          678      0.08%     48.14% # Bytes accessed per row activation
system.mem_ctrls.bytesPerActivate::768-895           16      0.00%     48.14% # Bytes accessed per row activation
system.mem_ctrls.bytesPerActivate::896-1023        20482      2.32%     50.46% # Bytes accessed per row activation
system.mem_ctrls.bytesPerActivate::1024-1151       438131     49.54%    100.00% # Bytes accessed per row activation
system.mem_ctrls.bytesPerActivate::total       884347                       # Bytes accessed per row activation
system.mem_ctrls.rdPerTurnAround::samples       216428                       # Reads before turning the bus around for writes
system.mem_ctrls.rdPerTurnAround::mean      24.332896                       # Reads before turning the bus around for writes
system.mem_ctrls.rdPerTurnAround::gmean     24.153909                       # Reads before turning the bus around for writes
system.mem_ctrls.rdPerTurnAround::stdev     56.100742                       # Reads before turning the bus around for writes
system.mem_ctrls.rdPerTurnAround::0-1023       216425    100.00%    100.00% # Reads before turning the bus around for writes
system.mem_ctrls.rdPerTurnAround::1024-2047            1      0.00%    100.00% # Reads before turning the bus around for writes
system.mem_ctrls.rdPerTurnAround::2048-3071            1      0.00%    100.00% # Reads before turning the bus around for writes
system.mem_ctrls.rdPerTurnAround::25600-26623            1      0.00%    100.00% # Reads before turning the bus around for writes
system.mem_ctrls.rdPerTurnAround::total        216428                       # Reads before turning the bus around for writes
system.mem_ctrls.wrPerTurnAround::samples       216428                       # Writes before turning the bus around for reads
[...]
system.cpu.icache.ReadReq_miss_rate::.cpu.inst     0.000010                       # miss rate for ReadReq accesses
system.cpu.icache.ReadReq_miss_rate::total     0.000010                       # miss rate for ReadReq accesses
system.cpu.icache.ReadReq_avg_miss_latency::.cpu.inst 98680.250784                       # average ReadReq miss latency
system.cpu.icache.ReadReq_avg_miss_latency::total 98680.250784                       # average ReadReq miss latency
system.cpu.icache.ReadReq_mshr_misses::.cpu.inst          319                       # number of ReadReq MSHR misses
system.cpu.icache.ReadReq_mshr_misses::total          319                       # number of ReadReq MSHR misses
system.cpu.icache.ReadReq_mshr_miss_latency::.cpu.inst     31160000                       # number of ReadReq MSHR miss cycles
system.cpu.icache.ReadReq_mshr_miss_latency::total     31160000                       # number of ReadReq MSHR miss cycles
system.cpu.icache.ReadReq_mshr_miss_rate::.cpu.inst     0.000010                       # mshr miss rate for ReadReq accesses
system.cpu.icache.ReadReq_mshr_miss_rate::total     0.000010                       # mshr miss rate for ReadReq accesses
system.cpu.icache.ReadReq_avg_mshr_miss_latency::.cpu.inst 97680.250784                       # average ReadReq mshr miss latency
system.cpu.icache.ReadReq_avg_mshr_miss_latency::total 97680.250784                       # average ReadReq mshr miss latency
system.cpu.icache.tags.pwrStateResidencyTicks::UNDEFINED 197208538000                       # Cumulative time (in ticks) in various power states
system.cpu.icache.tags.tagsinuse            63.997125                       # Cycle average of tags in use
system.cpu.icache.tags.total_refs            31712454                       # Total number of references to valid blocks.
system.cpu.icache.tags.sampled_refs               319                       # Sample count of references to valid blocks.
system.cpu.icache.tags.avg_refs          99412.081505                       # Average number of references to valid blocks.
system.cpu.icache.tags.warmup_cycle            122500                       # Cycle when the warmup percentage was hit.
system.cpu.icache.tags.occ_blocks::.cpu.inst    63.997125                       # Average occupied blocks per requestor
system.cpu.icache.tags.occ_percent::.cpu.inst     0.999955                       # Average percentage of cache occupancy
system.cpu.icache.tags.occ_percent::total     0.999955                       # Average percentage of cache occupancy
system.cpu.icache.tags.occ_task_id_blocks::1024           64                       # Occupied blocks per task id
system.cpu.icache.tags.age_task_id_blocks_1024::4           64                       # Occupied blocks per task id
system.cpu.icache.tags.occ_task_id_percent::1024            1                       # Percentage of cache occupancy per task id
system.cpu.icache.tags.tag_accesses          63425227                       # Number of tag accesses
system.cpu.icache.tags.data_accesses         63425227                       # Number of data accesses
system.cpu.dtb.walker.pwrStateResidencyTicks::UNDEFINED 197208538000                       # Cumulative time (in ticks) in various power states
system.cpu.dtb.stage2_mmu.stage2_tlb.walker.pwrStateResidencyTicks::UNDEFINED 197208538000                       # Cumulative time (in ticks) in various power states
system.cpu.dcache.pwrStateResidencyTicks::UNDEFINED 197208538000                       # Cumulative time (in ticks) in various power states
system.cpu.dcache.demand_hits::.cpu.data     85062075                       # number of demand (read+write) hits
system.cpu.dcache.demand_hits::total         85062075                       # number of demand (read+write) hits
system.cpu.dcache.overall_hits::.cpu.data     85062131                       # number of overall hits
system.cpu.dcache.overall_hits::total        85062131                       # number of overall hits
system.cpu.dcache.demand_misses::.cpu.data      1318534                       # number of demand (read+write) misses
system.cpu.dcache.demand_misses::total        1318534                       # number of demand (read+write) misses
system.cpu.dcache.overall_misses::.cpu.data      1318549                       # number of overall misses
system.cpu.dcache.overall_misses::total       1318549                       # number of overall misses
system.cpu.dcache.demand_miss_latency::.cpu.data 190939754000                       # number of demand (read+write) miss cycles
system.cpu.dcache.demand_miss_latency::total 190939754000                       # number of demand (read+write) miss cycles
system.cpu.dcache.overall_miss_latency::.cpu.data 190939754000                       # number of overall miss cycles
system.cpu.dcache.overall_miss_latency::total 190939754000                       # number of overall miss cycles
system.cpu.dcache.demand_accesses::.cpu.data     86380609                       # number of demand (read+write) accesses
system.cpu.dcache.demand_accesses::total     86380609                       # number of demand (read+write) accesses
system.cpu.dcache.overall_accesses::.cpu.data     86380680                       # number of overall (read+write) accesses
system.cpu.dcache.overall_accesses::total     86380680                       # number of overall (read+write) accesses
system.cpu.dcache.demand_miss_rate::.cpu.data     0.015264                       # miss rate for demand accesses
system.cpu.dcache.demand_miss_rate::total     0.015264                       # miss rate for demand accesses
system.cpu.dcache.overall_miss_rate::.cpu.data     0.015264                       # miss rate for overall accesses
system.cpu.dcache.overall_miss_rate::total     0.015264                       # miss rate for overall accesses
system.cpu.dcache.demand_avg_miss_latency::.cpu.data 144812.158048                       # average overall miss latency
system.cpu.dcache.demand_avg_miss_latency::total 144812.158048                       # average overall miss latency
system.cpu.dcache.overall_avg_miss_latency::.cpu.data 144810.510645                       # average overall miss latency
system.cpu.dcache.overall_avg_miss_latency::total 144810.510645                       # average overall miss latency
system.cpu.dcache.blocked_cycles::no_mshrs            0                       # number of cycles access was blocked
system.cpu.dcache.blocked_cycles::no_targets            0                       # number of cycles access was blocked
system.cpu.dcache.blocked::no_mshrs                 0                       # number of cycles access was blocked
system.cpu.dcache.blocked::no_targets               0                       # number of cycles access was blocked
system.cpu.dcache.avg_blocked_cycles::no_mshrs          nan                       # average number of cycles each access was blocked
system.cpu.dcache.avg_blocked_cycles::no_targets          nan                       # average number of cycles each access was blocked
system.cpu.dcache.writebacks::.writebacks       659278                       # number of writebacks
system.cpu.dcache.writebacks::total            659278                       # number of writebacks
system.cpu.dcache.demand_mshr_hits::.cpu.data       657596                       # number of demand (read+write) MSHR hits
system.cpu.dcache.demand_mshr_hits::total       657596                       # number of demand (read+write) MSHR hits
system.cpu.dcache.overall_mshr_hits::.cpu.data       657596                       # number of overall MSHR hits
system.cpu.dcache.overall_mshr_hits::total       657596                       # number of overall MSHR hits
system.cpu.dcache.demand_mshr_misses::.cpu.data       660938                       # number of demand (read+write) MSHR misses
system.cpu.dcache.demand_mshr_misses::total       660938                       # number of demand (read+write) MSHR misses
system.cpu.dcache.overall_mshr_misses::.cpu.data       660944                       # number of overall MSHR misses
system.cpu.dcache.overall_mshr_misses::total       660944                       # number of overall MSHR misses
system.cpu.dcache.demand_mshr_miss_latency::.cpu.data  92396775500                       # number of demand (read+write) MSHR miss cycles
system.cpu.dcache.demand_mshr_miss_latency::total  92396775500                       # number of demand (read+write) MSHR miss cycles
system.cpu.dcache.overall_mshr_miss_latency::.cpu.data  92397569000                       # number of overall MSHR miss cycles
system.cpu.dcache.overall_mshr_miss_latency::total  92397569000                       # number of overall MSHR miss cycles
system.cpu.dcache.demand_mshr_miss_rate::.cpu.data     0.007651                       # mshr miss rate for demand accesses
system.cpu.dcache.demand_mshr_miss_rate::total     0.007651                       # mshr miss rate for demand accesses
system.cpu.dcache.overall_mshr_miss_rate::.cpu.data     0.007652                       # mshr miss rate for overall accesses
system.cpu.dcache.overall_mshr_miss_rate::total     0.007652                       # mshr miss rate for overall accesses
system.cpu.dcache.demand_avg_mshr_miss_latency::.cpu.data 139796.434007                       # average overall mshr miss latency
system.cpu.dcache.demand_avg_mshr_miss_latency::total 139796.434007                       # average overall mshr miss latency
system.cpu.dcache.overall_avg_mshr_miss_latency::.cpu.data 139796.365501                       # average overall mshr miss latency
system.cpu.dcache.overall_avg_mshr_miss_latency::total 139796.365501                       # average overall mshr miss latency
system.cpu.dcache.replacements                 660816                       # number of replacements
system.cpu.dcache.ReadReq_hits::.cpu.data      2042524                       # number of ReadReq hits
system.cpu.dcache.ReadReq_hits::total         2042524                       # number of ReadReq hits
system.cpu.dcache.ReadReq_misses::.cpu.data         1575                       # number of ReadReq misses
system.cpu.dcache.ReadReq_misses::total          1575                       # number of ReadReq misses
system.cpu.dcache.ReadReq_miss_latency::.cpu.data     37724500                       # number of ReadReq miss cycles
system.cpu.dcache.ReadReq_miss_latency::total     37724500                       # number of ReadReq miss cycles
system.cpu.dcache.ReadReq_accesses::.cpu.data      2044099                       # number of ReadReq accesses(hits+misses)
system.cpu.dcache.ReadReq_accesses::total      2044099                       # number of ReadReq accesses(hits+misses)
system.cpu.dcache.ReadReq_miss_rate::.cpu.data     0.000771                       # miss rate for ReadReq accesses
system.cpu.dcache.ReadReq_miss_rate::total     0.000771                       # miss rate for ReadReq accesses
system.cpu.dcache.ReadReq_avg_miss_latency::.cpu.data 23952.063492                       # average ReadReq miss latency
system.cpu.dcache.ReadReq_avg_miss_latency::total 23952.063492                       # average ReadReq miss latency
system.cpu.dcache.ReadReq_mshr_hits::.cpu.data           16                       # number of ReadReq MSHR hits
system.cpu.dcache.ReadReq_mshr_hits::total           16                       # number of ReadReq MSHR hits
system.cpu.dcache.ReadReq_mshr_misses::.cpu.data         1559                       # number of ReadReq MSHR misses
system.cpu.dcache.ReadReq_mshr_misses::total         1559                       # number of ReadReq MSHR misses
system.cpu.dcache.ReadReq_mshr_miss_latency::.cpu.data     34283500                       # number of ReadReq MSHR miss cycles
system.cpu.dcache.ReadReq_mshr_miss_latency::total     34283500                       # number of ReadReq MSHR miss cycles
system.cpu.dcache.ReadReq_mshr_miss_rate::.cpu.data     0.000763                       # mshr miss rate for ReadReq accesses
system.cpu.dcache.ReadReq_mshr_miss_rate::total     0.000763                       # mshr miss rate for ReadReq accesses
system.cpu.dcache.ReadReq_avg_mshr_miss_latency::.cpu.data 21990.699166                       # average ReadReq mshr miss latency
system.cpu.dcache.ReadReq_avg_mshr_miss_latency::total 21990.699166                       # average ReadReq mshr miss latency
system.cpu.dcache.WriteReq_hits::.cpu.data     83019551                       # number of WriteReq hits
system.cpu.dcache.WriteReq_hits::total       83019551                       # number of WriteReq hits
system.cpu.dcache.WriteReq_misses::.cpu.data      1316959                       # number of WriteReq misses
system.cpu.dcache.WriteReq_misses::total      1316959                       # number of WriteReq misses
system.cpu.dcache.WriteReq_miss_latency::.cpu.data 190902029500                       # number of WriteReq miss cycles
system.cpu.dcache.WriteReq_miss_latency::total 190902029500                       # number of WriteReq miss cycles
system.cpu.dcache.WriteReq_accesses::.cpu.data     84336510                       # number of WriteReq accesses(hits+misses)
system.cpu.dcache.WriteReq_accesses::total     84336510                       # number of WriteReq accesses(hits+misses)
system.cpu.dcache.WriteReq_miss_rate::.cpu.data     0.015616                       # miss rate for WriteReq accesses
system.cpu.dcache.WriteReq_miss_rate::total     0.015616                       # miss rate for WriteReq accesses
system.cpu.dcache.WriteReq_avg_miss_latency::.cpu.data 144956.699108                       # average WriteReq miss latency
system.cpu.dcache.WriteReq_avg_miss_latency::total 144956.699108                       # average WriteReq miss latency
system.cpu.dcache.WriteReq_mshr_hits::.cpu.data       657580                       # number of WriteReq MSHR hits
system.cpu.dcache.WriteReq_mshr_hits::total       657580                       # number of WriteReq MSHR hits
system.cpu.dcache.WriteReq_mshr_misses::.cpu.data       659379                       # number of WriteReq MSHR misses
system.cpu.dcache.WriteReq_mshr_misses::total       659379                       # number of WriteReq MSHR misses
system.cpu.dcache.WriteReq_mshr_miss_latency::.cpu.data  92362492000                       # number of WriteReq MSHR miss cycles
system.cpu.dcache.WriteReq_mshr_miss_latency::total  92362492000                       # number of WriteReq MSHR miss cycles
system.cpu.dcache.WriteReq_mshr_miss_rate::.cpu.data     0.007818                       # mshr miss rate for WriteReq accesses
system.cpu.dcache.WriteReq_mshr_miss_rate::total     0.007818                       # mshr miss rate for WriteReq accesses
system.cpu.dcache.WriteReq_avg_mshr_miss_latency::.cpu.data 140074.967507                       # average WriteReq mshr miss latency
system.cpu.dcache.WriteReq_avg_mshr_miss_latency::total 140074.967507                       # average WriteReq mshr miss latency
system.cpu.dcache.SoftPFReq_hits::.cpu.data           56                       # number of SoftPFReq hits
system.cpu.dcache.SoftPFReq_hits::total            56                       # number of SoftPFReq hits
system.cpu.dcache.SoftPFReq_misses::.cpu.data           15                       # number of SoftPFReq misses
system.cpu.dcache.SoftPFReq_misses::total           15                       # number of SoftPFReq misses
system.cpu.dcache.SoftPFReq_accesses::.cpu.data           71                       # number of SoftPFReq accesses(hits+misses)
system.cpu.dcache.SoftPFReq_accesses::total           71                       # number of SoftPFReq accesses(hits+misses)
system.cpu.dcache.SoftPFReq_miss_rate::.cpu.data     0.211268                       # miss rate for SoftPFReq accesses
system.cpu.dcache.SoftPFReq_miss_rate::total     0.211268                       # miss rate for SoftPFReq accesses
system.cpu.dcache.SoftPFReq_mshr_misses::.cpu.data            6                       # number of SoftPFReq MSHR misses
system.cpu.dcache.SoftPFReq_mshr_misses::total            6                       # number of SoftPFReq MSHR misses
system.cpu.dcache.SoftPFReq_mshr_miss_latency::.cpu.data       793500                       # number of SoftPFReq MSHR miss cycles
system.cpu.dcache.SoftPFReq_mshr_miss_latency::total       793500                       # number of SoftPFReq MSHR miss cycles
system.cpu.dcache.SoftPFReq_mshr_miss_rate::.cpu.data     0.084507                       # mshr miss rate for SoftPFReq accesses
system.cpu.dcache.SoftPFReq_mshr_miss_rate::total     0.084507                       # mshr miss rate for SoftPFReq accesses
system.cpu.dcache.SoftPFReq_avg_mshr_miss_latency::.cpu.data       132250                       # average SoftPFReq mshr miss latency
system.cpu.dcache.SoftPFReq_avg_mshr_miss_latency::total       132250                       # average SoftPFReq mshr miss latency
system.cpu.dcache.LoadLockedReq_hits::.cpu.data           34                       # number of LoadLockedReq hits
system.cpu.dcache.LoadLockedReq_hits::total           34                       # number of LoadLockedReq hits
system.cpu.dcache.LoadLockedReq_accesses::.cpu.data           34                       # number of LoadLockedReq accesses(hits+misses)
system.cpu.dcache.LoadLockedReq_accesses::total           34                       # number of LoadLockedReq accesses(hits+misses)
system.cpu.dcache.StoreCondReq_hits::.cpu.data           34                       # number of StoreCondReq hits
system.cpu.dcache.StoreCondReq_hits::total           34                       # number of StoreCondReq hits
system.cpu.dcache.StoreCondReq_accesses::.cpu.data           34                       # number of StoreCondReq accesses(hits+misses)
system.cpu.dcache.StoreCondReq_accesses::total           34                       # number of StoreCondReq accesses(hits+misses)
system.cpu.dcache.tags.pwrStateResidencyTicks::UNDEFINED 197208538000                       # Cumulative time (in ticks) in various power states
system.cpu.dcache.tags.tagsinuse           127.968895                       # Cycle average of tags in use
system.cpu.dcache.tags.total_refs            85723143                       # Total number of references to valid blocks.
system.cpu.dcache.tags.sampled_refs            660944                       # Sample count of references to valid blocks.
system.cpu.dcache.tags.avg_refs            129.698042                       # Average number of references to valid blocks.
system.cpu.dcache.tags.warmup_cycle            273500                       # Cycle when the warmup percentage was hit.
system.cpu.dcache.tags.occ_blocks::.cpu.data   127.968895                       # Average occupied blocks per requestor
system.cpu.dcache.tags.occ_percent::.cpu.data     0.999757                       # Average percentage of cache occupancy
system.cpu.dcache.tags.occ_percent::total     0.999757                       # Average percentage of cache occupancy
system.cpu.dcache.tags.occ_task_id_blocks::1024          128                       # Occupied blocks per task id
system.cpu.dcache.tags.age_task_id_blocks_1024::0           35                       # Occupied blocks per task id
system.cpu.dcache.tags.age_task_id_blocks_1024::1           93                       # Occupied blocks per task id
system.cpu.dcache.tags.occ_task_id_percent::1024            1                       # Percentage of cache occupancy per task id
system.cpu.dcache.tags.tag_accesses         173422440                       # Number of tag accesses
system.cpu.dcache.tags.data_accesses        173422440                       # Number of data accesses
system.cpu.itb.walker.pwrStateResidencyTicks::UNDEFINED 197208538000                       # Cumulative time (in ticks) in various power states
system.cpu.itb.stage2_mmu.stage2_tlb.walker.pwrStateResidencyTicks::UNDEFINED 197208538000                       # Cumulative time (in ticks) in various power states

---------- End Simulation Statistics   ----------
