
---------- Begin Simulation Statistics ----------
final_tick                               153606062000                       # Number of ticks from beginning of simulation (restored from checkpoints and never reset)
host_inst_rate                                 217371                       # Simulator instruction rate (inst/s)
host_mem_usage                                 697440                       # Number of bytes of host memory used
host_op_rate                                   400342                       # Simulator op (including micro ops) rate (op/s)
host_seconds                                   460.04                       # Real time elapsed on the host
host_tick_rate                              333894440                       # Simulator tick rate (ticks/s)
sim_freq                                 1000000000000                       # Frequency of simulated ticks
sim_insts                                   100000001                       # Number of instructions simulated
sim_ops                                     184174791                       # Number of ops (including micro ops) simulated
sim_seconds                                  0.153606                       # Number of seconds simulated
sim_ticks                                153606062000                       # Number of ticks simulated
system.cpu.branchPred.BTBCorrect                    0                       # Number of correct BTB predictions (this stat may not work properly.
system.cpu.branchPred.BTBHitPct             99.955630                       # BTB Hit Percentage
system.cpu.branchPred.BTBHits                10560991                       # Number of BTB hits
system.cpu.branchPred.BTBLookups             10565679                       # Number of BTB lookups
system.cpu.branchPred.RASInCorrect                  4                       # Number of incorrect RAS predictions.
system.cpu.branchPred.condIncorrect              1454                       # Number of conditional branches incorrect
system.cpu.branchPred.condPredicted          10562108                       # Number of conditional branches predicted
system.cpu.branchPred.indirectHits                 31                       # Number of indirect target hits.
system.cpu.branchPred.indirectLookups             214                       # Number of indirect predictor lookups.
system.cpu.branchPred.indirectMisses              183                       # Number of indirect misses.
system.cpu.branchPred.lookups                10570335                       # Number of BP lookups
system.cpu.branchPred.usedRAS                    2722                       # Number of times the RAS was used to get a target.
system.cpu.branchPredindirectMispredicted           97                       # Number of mispredicted indirect branches.
system.cpu.committedInsts                   100000001                       # Number of instructions committed
system.cpu.committedOps                     184174791                       # Number of ops (including micro ops) committed
system.cpu.cpi                               3.072121                       # CPI: cycles per instruction
system.cpu.discardedOps                          4269                       # Number of ops (including micro ops) which were discarded before commit
system.cpu.dtb.accesses                             0                       # DTB accesses
system.cpu.dtb.align_faults                         0                       # Number of TLB faults due to alignment restrictions
system.cpu.dtb.domain_faults                        0                       # Number of TLB faults due to domain restrictions
system.cpu.dtb.flush_entries                        0                       # Number of entries that have been flushed from TLB
system.cpu.dtb.flush_tlb                            0                       # Number of times complete TLB was flushed
system.cpu.dtb.flush_tlb_asid                       0                       # Number of times TLB was flushed by ASID
system.cpu.dtb.flush_tlb_mva                        0                       # Number of times TLB was flushed by MVA
system.cpu.dtb.flush_tlb_mva_asid                   0                       # Number of times TLB was flushed by MVA & ASID
system.cpu.dtb.hits                                 0                       # DTB hits
system.cpu.dtb.inst_accesses                        0                       # ITB inst accesses
system.cpu.dtb.inst_hits                            0                       # ITB inst hits
system.cpu.dtb.inst_misses                          0                       # ITB inst misses
system.cpu.dtb.misses                               0                       # DTB misses
system.cpu.dtb.perms_faults                         0                       # Number of TLB faults due to permissions restrictions
system.cpu.dtb.prefetch_faults                      0                       # Number of TLB faults due to prefetch
system.cpu.dtb.read_accesses                        0                       # DTB read accesses
system.cpu.dtb.read_hits                            0                       # DTB read hits
system.cpu.dtb.read_misses                          0                       # DTB read misses
system.cpu.dtb.stage2_mmu.stage2_tlb.accesses            0                       # DTB accesses
system.cpu.dtb.stage2_mmu.stage2_tlb.align_faults            0                       # Number of TLB faults due to alignment restrictions
system.cpu.dtb.stage2_mmu.stage2_tlb.domain_faults            0                       # Number of TLB faults due to domain restrictions
system.cpu.dtb.stage2_mmu.stage2_tlb.flush_entries            0                       # Number of entries that have been flushed from TLB
system.cpu.dtb.stage2_mmu.stage2_tlb.flush_tlb            0                       # Number of times complete TLB was flushed
system.cpu.dtb.stage2_mmu.stage2_tlb.flush_tlb_asid            0                       # Number of times TLB was flushed by ASID
system.cpu.dtb.stage2_mmu.stage2_tlb.flush_tlb_mva            0                       # Number of times TLB was flushed by MVA
system.cpu.dtb.stage2_mmu.stage2_tlb.flush_tlb_mva_asid            0                       # Number of times TLB was flushed by MVA & ASID
system.cpu.dtb.stage2_mmu.stage2_tlb.hits            0                       # DTB hits
system.cpu.dtb.stage2_mmu.stage2_tlb.inst_accesses            0                       # ITB inst accesses
system.cpu.dtb.stage2_mmu.stage2_tlb.inst_hits            0                       # ITB inst hits
system.cpu.dtb.stage2_mmu.stage2_tlb.inst_misses            0                       # ITB inst misses
system.cpu.dtb.stage2_mmu.stage2_tlb.misses            0                       # DTB misses
system.cpu.dtb.stage2_mmu.stage2_tlb.perms_faults            0                       # Number of TLB faults due to permissions restrictions
system.cpu.dtb.stage2_mmu.stage2_tlb.prefetch_faults            0                       # Number of TLB faults due to prefetch
system.cpu.dtb.stage2_mmu.stage2_tlb.read_accesses            0                       # DTB read accesses
system.cpu.dtb.stage2_mmu.stage2_tlb.read_hits            0                       # DTB read hits
system.cpu.dtb.stage2_mmu.stage2_tlb.read_misses            0                       # DTB read misses
system.cpu.dtb.stage2_mmu.stage2_tlb.walker.walkRequestOrigin_Requested::Data            0                       # Table walker requests started/completed, data/inst
system.cpu.dtb.stage2_mmu.stage2_tlb.walker.walkRequestOrigin_Requested::Inst            0                       # Table walker requests started/completed, data/inst
system.cpu.dtb.stage2_mmu.stage2_tlb.walker.walkRequestOrigin_Requested::total            0                       # Table walker requests started/completed, data/inst
system.cpu.dtb.stage2_mmu.stage2_tlb.walker.walkRequestOrigin_Completed::Data            0                       # Table walker requests started/completed, data/inst
system.cpu.dtb.stage2_mmu.stage2_tlb.walker.walkRequestOrigin_Completed::Inst            0                       # Table walker requests started/completed, data/inst
system.cpu.dtb.stage2_mmu.stage2_tlb.walker.walkRequestOrigin_Completed::total            0                       # Table walker requests started/completed, data/inst
system.cpu.dtb.stage2_mmu.stage2_tlb.walker.walkRequestOrigin::total            0                       # Table walker requests started/completed, data/inst
system.cpu.dtb.stage2_mmu.stage2_tlb.walker.walks            0                       # Table walker walks requested
system.cpu.dtb.stage2_mmu.stage2_tlb.write_accesses            0                       # DTB write accesses
system.cpu.dtb.stage2_mmu.stage2_tlb.write_hits            0                       # DTB write hits
system.cpu.dtb.stage2_mmu.stage2_tlb.write_misses            0                       # DTB write misses
system.cpu.dtb.walker.walkRequestOrigin_Requested::Data            0                       # Table walker requests started/completed, data/inst
system.cpu.dtb.walker.walkRequestOrigin_Requested::Inst            0                       # Table walker requests started/completed, data/inst
system.cpu.dtb.walker.walkRequestOrigin_Requested::total            0                       # Table walker requests started/completed, data/inst
system.cpu.dtb.walker.walkRequestOrigin_Completed::Data            0                       # Table walker requests started/completed, data/inst
system.cpu.dtb.walker.walkRequestOrigin_Completed::Inst            0                       # Table walker requests started/completed, data/inst
system.cpu.dtb.walker.walkRequestOrigin_Completed::total            0                       # Table walker requests started/completed, data/inst
system.cpu.dtb.walker.walkRequestOrigin::total            0                       # Table walker requests started/completed, data/inst
system.cpu.dtb.walker.walks                         0                       # Table walker walks requested
system.cpu.dtb.write_accesses                       0                       # DTB write accesses
system.cpu.dtb.write_hits                           0                       # DTB write hits
system.cpu.dtb.write_misses                         0                       # DTB write misses
system.cpu.fetch2.amo_instructions                  0                       # Number of memory atomic instructions successfully decoded
system.cpu.fetch2.fp_instructions                   0                       # Number of floating point instructions successfully decoded
system.cpu.fetch2.int_instructions           44895186                       # Number of integer instructions successfully decoded
system.cpu.fetch2.load_instructions           2086431                       # Number of memory load instructions successfully decoded
system.cpu.fetch2.store_instructions           169154                       # Number of memory store instructions successfully decoded
system.cpu.fetch2.vec_instructions                  0                       # Number of SIMD instructions successfully decoded
system.cpu.idleCycles                        91113599                       # Total number of cycles that the object has spent stopped
system.cpu.ipc                               0.325508                       # IPC: instructions per cycle
system.cpu.itb.accesses                             0                       # DTB accesses
system.cpu.itb.align_faults                         0                       # Number of TLB faults due to alignment restrictions
system.cpu.itb.domain_faults                        0                       # Number of TLB faults due to domain restrictions
system.cpu.itb.flush_entries                        0                       # Number of entries that have been flushed from TLB
system.cpu.itb.flush_tlb                            0                       # Number of times complete TLB was flushed
system.cpu.itb.flush_tlb_asid                       0                       # Number of times TLB was flushed by ASID
system.cpu.itb.flush_tlb_mva                        0                       # Number of times TLB was flushed by MVA
system.cpu.itb.flush_tlb_mva_asid                   0                       # Number of times TLB was flushed by MVA & ASID
system.cpu.itb.hits                                 0                       # DTB hits
system.cpu.itb.inst_accesses                        0                       # ITB inst accesses
system.cpu.itb.inst_hits                            0                       # ITB inst hits
system.cpu.itb.inst_misses                          0                       # ITB inst misses
system.cpu.itb.misses                               0                       # DTB misses
system.cpu.itb.perms_faults                         0                       # Number of TLB faults due to permissions restrictions
system.cpu.itb.prefetch_faults                      0                       # Number of TLB faults due to prefetch
system.cpu.itb.read_accesses                        0                       # DTB read accesses
system.cpu.itb.read_hits                            0                       # DTB read hits
system.cpu.itb.read_misses                          0                       # DTB read misses
system.cpu.itb.stage2_mmu.stage2_tlb.accesses            0                       # DTB accesses
system.cpu.itb.stage2_mmu.stage2_tlb.align_faults            0                       # Number of TLB faults due to alignment restrictions
system.cpu.itb.stage2_mmu.stage2_tlb.domain_faults            0                       # Number of TLB faults due to domain restrictions
system.cpu.itb.stage2_mmu.stage2_tlb.flush_entries            0                       # Number of entries that have been flushed from TLB
system.cpu.itb.stage2_mmu.stage2_tlb.flush_tlb            0                       # Number of times complete TLB was flushed
system.cpu.itb.stage2_mmu.stage2_tlb.flush_tlb_asid            0                       # Number of times TLB was flushed by ASID
system.cpu.itb.stage2_mmu.stage2_tlb.flush_tlb_mva            0                       # Number of times TLB was flushed by MVA
system.cpu.itb.stage2_mmu.stage2_tlb.flush_tlb_mva_asid            0                       # Number of times TLB was flushed by MVA & ASID
system.cpu.itb.stage2_mmu.stage2_tlb.hits            0                       # DTB hits
system.cpu.itb.stage2_mmu.stage2_tlb.inst_accesses            0                       # ITB inst accesses
system.cpu.itb.stage2_mmu.stage2_tlb.inst_hits            0                       # ITB inst hits
system.cpu.itb.stage2_mmu.stage2_tlb.inst_misses            0                       # ITB inst misses
system.cpu.itb.stage2_mmu.stage2_tlb.misses            0                       # DTB misses
system.cpu.itb.stage2_mmu.stage2_tlb.perms_faults            0                       # Number of TLB faults due to permissions restrictions
system.cpu.itb.stage2_mmu.stage2_tlb.prefetch_faults            0                       # Number of TLB faults due to prefetch
system.cpu.itb.stage2_mmu.stage2_tlb.read_accesses            0                       # DTB read accesses
system.cpu.itb.stage2_mmu.stage2_tlb.read_hits            0                       # DTB read hits
system.cpu.itb.stage2_mmu.stage2_tlb.read_misses            0                       # DTB read misses
system.cpu.itb.stage2_mmu.stage2_tlb.walker.walkRequestOrigin_Requested::Data            0                       # Table walker requests started/completed, data/inst
system.cpu.itb.stage2_mmu.stage2_tlb.walker.walkRequestOrigin_Requested::Inst            0                       # Table walker requests started/completed, data/inst
system.cpu.itb.stage2_mmu.stage2_tlb.walker.walkRequestOrigin_Requested::total            0                       # Table walker requests started/completed, data/inst
system.cpu.itb.stage2_mmu.stage2_tlb.walker.walkRequestOrigin_Completed::Data            0                       # Table walker requests started/completed, data/inst
system.cpu.itb.stage2_mmu.stage2_tlb.walker.walkRequestOrigin_Completed::Inst            0                       # Table walker requests started/completed, data/inst
system.cpu.itb.stage2_mmu.stage2_tlb.walker.walkRequestOrigin_Completed::total            0                       # Table walker requests started/completed, data/inst
system.cpu.itb.stage2_mmu.stage2_tlb.walker.walkRequestOrigin::total            0                       # Table walker requests started/completed, data/inst
system.cpu.itb.stage2_mmu.stage2_tlb.walker.walks            0                       # Table walker walks requested
system.cpu.itb.stage2_mmu.stage2_tlb.write_accesses            0                       # DTB write accesses
system.cpu.itb.stage2_mmu.stage2_tlb.write_hits            0                       # DTB write hits
system.cpu.itb.stage2_mmu.stage2_tlb.write_misses            0                       # DTB write misses
system.cpu.itb.walker.walkRequestOrigin_Requested::Data            0                       # Table walker requests started/completed, data/inst
system.cpu.itb.walker.walkRequestOrigin_Requested::Inst            0                       # Table walker requests started/completed, data/inst
system.cpu.itb.walker.walkRequestOrigin_Requested::total            0                       # Table walker requests started/completed, data/inst
system.cpu.itb.walker.walkRequestOrigin_Completed::Data            0                       # Table walker requests started/completed, data/inst
system.cpu.itb.walker.walkRequestOrigin_Completed::Inst            0                       # Table walker requests started/completed, data/inst
system.cpu.itb.walker.walkRequestOrigin_Completed::total            0                       # Table walker requests started/completed, data/inst
system.cpu.itb.walker.walkRequestOrigin::total            0                       # Table walker requests started/completed, data/inst
system.cpu.itb.walker.walks                         0                       # Table walker walks requested
system.cpu.itb.write_accesses                       0                       # DTB write accesses
system.cpu.itb.write_hits                           0                       # DTB write hits
system.cpu.itb.write_misses                         0                       # DTB write misses
system.cpu.numCycles                        307212124                       # number of cpu cycles simulated
system.cpu.numFetchSuspends                         0                       # Number of times Execute suspended instruction fetching
system.cpu.numWorkItemsCompleted                    0                       # number of work items this cpu completed
system.cpu.numWorkItemsStarted                      0                       # number of work items this cpu started
system.cpu.op_class_0::No_OpClass                   0      0.00%      0.00% # Class of committed instruction
system.cpu.op_class_0::IntAlu                97640484     53.02%     53.02% # Class of committed instruction
system.cpu.op_class_0::IntMult                 114699      0.06%     53.08% # Class of committed instruction
system.cpu.op_class_0::IntDiv                       0      0.00%     53.08% # Class of committed instruction
system.cpu.op_class_0::FloatAdd                     0      0.00%     53.08% # Class of committed instruction
system.cpu.op_class_0::FloatCmp                     0      0.00%     53.08% # Class of committed instruction
system.cpu.op_class_0::FloatCvt                     0      0.00%     53.08% # Class of committed instruction
system.cpu.op_class_0::FloatMult                    0      0.00%     53.08% # Class of committed instruction
system.cpu.op_class_0::FloatMultAcc                 0      0.00%     53.08% # Class of committed instruction
system.cpu.op_class_0::FloatDiv                     0      0.00%     53.08% # Class of committed instruction
system.cpu.op_class_0::FloatMisc                    0      0.00%     53.08% # Class of committed instruction
system.cpu.op_class_0::FloatSqrt                    0      0.00%     53.08% # Class of committed instruction
system.cpu.op_class_0::SimdAdd                      8      0.00%     53.08% # Class of committed instruction
system.cpu.op_class_0::SimdAddAcc                   0      0.00%     53.08% # Class of committed instruction
system.cpu.op_class_0::SimdAlu                      8      0.00%     53.08% # Class of committed instruction
system.cpu.op_class_0::SimdCmp                      6      0.00%     53.08% # Class of committed instruction
system.cpu.op_class_0::SimdCvt                      0      0.00%     53.08% # Class of committed instruction
system.cpu.op_class_0::SimdMisc                     1      0.00%     53.08% # Class of committed instruction
system.cpu.op_class_0::SimdMult                     0      0.00%     53.08% # Class of committed instruction
system.cpu.op_class_0::SimdMultAcc                  0      0.00%     53.08% # Class of committed instruction
system.cpu.op_class_0::SimdShift                    0      0.00%     53.08% # Class of committed instruction
system.cpu.op_class_0::SimdShiftAcc                 0      0.00%     53.08% # Class of committed instruction
system.cpu.op_class_0::SimdDiv                      0      0.00%     53.08% # Class of committed instruction
system.cpu.op_class_0::SimdSqrt                     0      0.00%     53.08% # Class of committed instruction
system.cpu.op_class_0::SimdFloatAdd                 0      0.00%     53.08% # Class of committed instruction
system.cpu.op_class_0::SimdFloatAlu                 0      0.00%     53.08% # Class of committed instruction
system.cpu.op_class_0::SimdFloatCmp                 0      0.00%     53.08% # Class of committed instruction
system.cpu.op_class_0::SimdFloatCvt                 0      0.00%     53.08% # Class of committed instruction
system.cpu.op_class_0::SimdFloatDiv                 0      0.00%     53.08% # Class of committed instruction
system.cpu.op_class_0::SimdFloatMisc               23      0.00%     53.08% # Class of committed instruction
system.cpu.op_class_0::SimdFloatMult                0      0.00%     53.08% # Class of committed instruction
system.cpu.op_class_0::SimdFloatMultAcc             0      0.00%     53.08% # Class of committed instruction
system.cpu.op_class_0::SimdFloatSqrt                0      0.00%     53.08% # Class of committed instruction
system.cpu.op_class_0::SimdReduceAdd                0      0.00%     53.08% # Class of committed instruction
system.cpu.op_class_0::SimdReduceAlu                0      0.00%     53.08% # Class of committed instruction
system.cpu.op_class_0::SimdReduceCmp                0      0.00%     53.08% # Class of committed instruction
system.cpu.op_class_0::SimdFloatReduceAdd            0      0.00%     53.08% # Class of committed instruction
system.cpu.op_class_0::SimdFloatReduceCmp            0      0.00%     53.08% # Class of committed instruction
system.cpu.op_class_0::SimdAes                      0      0.00%     53.08% # Class of committed instruction
system.cpu.op_class_0::SimdAesMix                   0      0.00%     53.08% # Class of committed instruction
system.cpu.op_class_0::SimdSha1Hash                 0      0.00%     53.08% # Class of committed instruction
system.cpu.op_class_0::SimdSha1Hash2                0      0.00%     53.08% # Class of committed instruction
system.cpu.op_class_0::SimdSha256Hash               0      0.00%     53.08% # Class of committed instruction
system.cpu.op_class_0::SimdSha256Hash2              0      0.00%     53.08% # Class of committed instruction
system.cpu.op_class_0::SimdShaSigma2                0      0.00%     53.08% # Class of committed instruction
system.cpu.op_class_0::SimdShaSigma3                0      0.00%     53.08% # Class of committed instruction
system.cpu.op_class_0::SimdPredAlu                  0      0.00%     53.08% # Class of committed instruction
system.cpu.op_class_0::MemRead                2082680      1.13%     54.21% # Class of committed instruction
system.cpu.op_class_0::MemWrite              84336882     45.79%    100.00% # Class of committed instruction
system.cpu.op_class_0::FloatMemRead                 0      0.00%    100.00% # Class of committed instruction
system.cpu.op_class_0::FloatMemWrite                0      0.00%    100.00% # Class of committed instruction
system.cpu.op_class_0::IprAccess                    0      0.00%    100.00% # Class of committed instruction
system.cpu.op_class_0::InstPrefetch                 0      0.00%    100.00% # Class of committed instruction
system.cpu.op_class_0::total                184174791                       # Class of committed instruction
system.cpu.tickCycles                       216098525                       # Number of cycles that the object actually ticked
system.cpu.workload.numSyscalls                    18                       # Number of system calls
system.membus.snoop_filter.hit_multi_requests            0                       # Number of requests hitting in the snoop filter with multiple (>1) holders of the requested data.
system.membus.snoop_filter.hit_multi_snoops            0                       # Number of snoops hitting in the snoop filter with multiple (>1) holders of the requested data.
system.membus.snoop_filter.hit_single_requests       165485                       # Number of requests hitting in the snoop filter with a single holder of the requested data.
system.membus.snoop_filter.hit_single_snoops            0                       # Number of snoops hitting in the snoop filter with a single holder of the requested data.
system.membus.snoop_filter.tot_requests        331478                       # Total number of requests made to the snoop filter.
system.membus.snoop_filter.tot_snoops               0                       # Total number of snoops made to the snoop filter.
system.tol2bus.snoop_filter.hit_multi_requests           85                       # Number of requests hitting in the snoop filter with multiple (>1) holders of the requested data.
system.tol2bus.snoop_filter.hit_multi_snoops            0                       # Number of snoops hitting in the snoop filter with multiple (>1) holders of the requested data.
system.tol2bus.snoop_filter.hit_single_requests       164906                       # Number of requests hitting in the snoop filter with a single holder of the requested data.
system.tol2bus.snoop_filter.hit_single_snoops           39                       # Number of snoops hitting in the snoop filter with a single holder of the requested data.
system.tol2bus.snoop_filter.tot_requests       329895                       # Total number of requests made to the snoop filter.
system.tol2bus.snoop_filter.tot_snoops             39                       # Total number of snoops made to the snoop filter.
system.membus.pwrStateResidencyTicks::UNDEFINED 153606062000                       # Cumulative time (in ticks) in various power states
system.membus.trans_dist::ReadResp                191                       # Transaction distribution
system.membus.trans_dist::WritebackDirty       163514                       # Transaction distribution
system.membus.trans_dist::CleanEvict              159                       # Transaction distribution
system.membus.trans_dist::ReadExReq            164529                       # Transaction distribution
system.membus.trans_dist::ReadExResp           164529                       # Transaction distribution
system.membus.trans_dist::ReadSharedReq           191                       # Transaction distribution
system.membus.pkt_count_system.l2.mem_side::system.mem_ctrls.port       493113                       # Packet count per connected master and slave (bytes)
system.membus.pkt_count::total                 493113                       # Packet count per connected master and slave (bytes)
system.membus.pkt_size_system.l2.mem_side::system.mem_ctrls.port    672223232                       # Cumulative packet size per connected master and slave (bytes)
system.membus.pkt_size::total               672223232                       # Cumulative packet size per connected master and slave (bytes)
system.membus.snoops                                0                       # Total snoops (count)
system.membus.snoopTraffic                          0                       # Total snoop traffic (bytes)
system.membus.snoop_fanout::samples            166013                       # Request fanout histogram
system.membus.snoop_fanout::mean                    0                       # Request fanout histogram
system.membus.snoop_fanout::stdev                   0                       # Request fanout histogram
system.membus.snoop_fanout::underflows              0      0.00%      0.00% # Request fanout histogram
system.membus.snoop_fanout::0                  166013    100.00%    100.00% # Request fanout histogram
system.membus.snoop_fanout::1                       0      0.00%    100.00% # Request fanout histogram
system.membus.snoop_fanout::overflows               0      0.00%    100.00% # Request fanout histogram
system.membus.snoop_fanout::min_value               0                       # Request fanout histogram
system.membus.snoop_fanout::max_value               0                       # Request fanout histogram
system.membus.snoop_fanout::total              166013                       # Request fanout histogram
system.membus.respLayer1.occupancy        21340020500                       # Layer occupancy (ticks)
system.membus.respLayer1.utilization             13.9                       # Layer utilization (%)
system.membus.reqLayer0.occupancy         21262396000                       # Layer occupancy (ticks)
system.membus.reqLayer0.utilization              13.8                       # Layer utilization (%)
system.tol2bus.pwrStateResidencyTicks::UNDEFINED 153606062000                       # Cumulative time (in ticks) in various power states
system.tol2bus.trans_dist::ReadResp               448                       # Transaction distribution
system.tol2bus.trans_dist::WritebackDirty       328002                       # Transaction distribution
system.tol2bus.trans_dist::WritebackClean          322                       # Transaction distribution
system.tol2bus.trans_dist::CleanEvict             294                       # Transaction distribution
system.tol2bus.trans_dist::ReadExReq           164538                       # Transaction distribution
system.tol2bus.trans_dist::ReadExResp          164538                       # Transaction distribution
system.tol2bus.trans_dist::ReadCleanReq           338                       # Transaction distribution
system.tol2bus.trans_dist::ReadSharedReq          110                       # Transaction distribution
system.tol2bus.pkt_count_system.cpu.icache.mem_side::system.l2.cpu_side          998                       # Packet count per connected master and slave (bytes)
system.tol2bus.pkt_count_system.cpu.dcache.mem_side::system.l2.cpu_side       493880                       # Packet count per connected master and slave (bytes)
system.tol2bus.pkt_count::total                494878                       # Packet count per connected master and slave (bytes)
system.tol2bus.pkt_size_system.cpu.icache.mem_side::system.l2.cpu_side      1351680                       # Cumulative packet size per connected master and slave (bytes)
system.tol2bus.pkt_size_system.cpu.dcache.mem_side::system.l2.cpu_side    674070528                       # Cumulative packet size per connected master and slave (bytes)
system.tol2bus.pkt_size::total              675422208                       # Cumulative packet size per connected master and slave (bytes)
system.tol2bus.snoops                          163712                       # Total snoops (count)
system.tol2bus.snoopTraffic                 334876672                       # Total snoop traffic (bytes)
system.tol2bus.snoop_fanout::samples           328701                       # Request fanout histogram
system.tol2bus.snoop_fanout::mean            0.000377                       # Request fanout histogram
system.tol2bus.snoop_fanout::stdev           0.019419                       # Request fanout histogram
system.tol2bus.snoop_fanout::underflows             0      0.00%      0.00% # Request fanout histogram
system.tol2bus.snoop_fanout::0                 328577     99.96%     99.96% # Request fanout histogram
system.tol2bus.snoop_fanout::1                    124      0.04%    100.00% # Request fanout histogram
system.tol2bus.snoop_fanout::2                      0      0.00%    100.00% # Request fanout histogram
system.tol2bus.snoop_fanout::overflows              0      0.00%    100.00% # Request fanout histogram
system.tol2bus.snoop_fanout::min_value              0                       # Request fanout histogram
system.tol2bus.snoop_fanout::max_value              1                       # Request fanout histogram
system.tol2bus.snoop_fanout::total             328701                       # Request fanout histogram
system.tol2bus.reqLayer0.occupancy         5438868497                       # Layer occupancy (ticks)
system.tol2bus.reqLayer0.utilization              3.5                       # Layer utilization (%)
system.tol2bus.respLayer1.occupancy        5351060998                       # Layer occupancy (ticks)
system.tol2bus.respLayer1.utilization             3.5                       # Layer utilization (%)
system.tol2bus.respLayer0.occupancy          10985000                       # Layer occupancy (ticks)
system.tol2bus.respLayer0.utilization             0.0                       # Layer utilization (%)
system.voltage_domain.voltage                       1                       # Voltage in Volts
system.clk_domain.clock                          1000                       # Clock period in ticks
system.l2.pwrStateResidencyTicks::UNDEFINED 153606062000                       # Cumulative time (in ticks) in various power states
system.l2.demand_hits::.cpu.inst                  212                       # number of demand (read+write) hits
system.l2.demand_hits::.cpu.data                   52                       # number of demand (read+write) hits
system.l2.demand_hits::total                      264                       # number of demand (read+write) hits
system.l2.overall_hits::.cpu.inst                 212                       # number of overall hits
system.l2.overall_hits::.cpu.data                  52                       # number of overall hits
system.l2.overall_hits::total                     264                       # number of overall hits
system.l2.demand_misses::.cpu.inst                126                       # number of demand (read+write) misses
system.l2.demand_misses::.cpu.data             164596                       # number of demand (read+write) misses
system.l2.demand_misses::total                 164722                       # number of demand (read+write) misses
system.l2.overall_misses::.cpu.inst               126                       # number of overall misses
system.l2.overall_misses::.cpu.data            164596                       # number of overall misses
system.l2.overall_misses::total                164722                       # number of overall misses
system.l2.demand_miss_latency::.cpu.inst     41028248                       # number of demand (read+write) miss cycles
system.l2.demand_miss_latency::.cpu.data  46024058249                       # number of demand (read+write) miss cycles
system.l2.demand_miss_latency::total      46065086497                       # number of demand (read+write) miss cycles
system.l2.overall_miss_latency::.cpu.inst     41028248                       # number of overall miss cycles
system.l2.overall_miss_latency::.cpu.data  46024058249                       # number of overall miss cycles
system.l2.overall_miss_latency::total     46065086497                       # number of overall miss cycles
system.l2.demand_accesses::.cpu.inst              338                       # number of demand (read+write) accesses
system.l2.demand_accesses::.cpu.data           164648                       # number of demand (read+write) accesses
system.l2.demand_accesses::total               164986                       # number of demand (read+write) accesses
system.l2.overall_accesses::.cpu.inst             338                       # number of overall (read+write) accesses
system.l2.overall_accesses::.cpu.data          164648                       # number of overall (read+write) accesses
system.l2.overall_accesses::total              164986                       # number of overall (read+write) accesses
system.l2.demand_miss_rate::.cpu.inst        0.372781                       # miss rate for demand accesses
system.l2.demand_miss_rate::.cpu.data        0.999684                       # miss rate for demand accesses
system.l2.demand_miss_rate::total            0.998400                       # miss rate for demand accesses
system.l2.overall_miss_rate::.cpu.inst       0.372781                       # miss rate for overall accesses
system.l2.overall_miss_rate::.cpu.data       0.999684                       # miss rate for overall accesses
system.l2.overall_miss_rate::total           0.998400                       # miss rate for overall accesses
system.l2.demand_avg_miss_latency::.cpu.inst 325621.015873                       # average overall miss latency
system.l2.demand_avg_miss_latency::.cpu.data 279618.327596                       # average overall miss latency
system.l2.demand_avg_miss_latency::total 279653.516209                       # average overall miss latency
system.l2.overall_avg_miss_latency::.cpu.inst 325621.015873                       # average overall miss latency
system.l2.overall_avg_miss_latency::.cpu.data 279618.327596                       # average overall miss latency
system.l2.overall_avg_miss_latency::total 279653.516209                       # average overall miss latency
system.l2.blocked_cycles::no_mshrs                  0                       # number of cycles access was blocked
system.l2.blocked_cycles::no_targets                0                       # number of cycles access was blocked
system.l2.blocked::no_mshrs                         0                       # number of cycles access was blocked
system.l2.blocked::no_targets                       0                       # number of cycles access was blocked
system.l2.avg_blocked_cycles::no_mshrs            nan                       # average number of cycles each access was blocked
system.l2.avg_blocked_cycles::no_targets          nan                       # average number of cycles each access was blocked
system.l2.writebacks::.writebacks              163514                       # number of writebacks
system.l2.writebacks::total                    163514                       # number of writebacks
system.l2.demand_mshr_hits::.cpu.data               2                       # number of demand (read+write) MSHR hits
system.l2.demand_mshr_hits::total                   2                       # number of demand (read+write) MSHR hits
system.l2.overall_mshr_hits::.cpu.data              2                       # number of overall MSHR hits
system.l2.overall_mshr_hits::total                  2                       # number of overall MSHR hits
system.l2.demand_mshr_misses::.cpu.inst           126                       # number of demand (read+write) MSHR misses
system.l2.demand_mshr_misses::.cpu.data        164594                       # number of demand (read+write) MSHR misses
system.l2.demand_mshr_misses::total            164720                       # number of demand (read+write) MSHR misses
system.l2.overall_mshr_misses::.cpu.inst          126                       # number of overall MSHR misses
system.l2.overall_mshr_misses::.cpu.data       164594                       # number of overall MSHR misses
system.l2.overall_mshr_misses::total           164720                       # number of overall MSHR misses
system.l2.demand_mshr_miss_latency::.cpu.inst     39768248                       # number of demand (read+write) MSHR miss cycles
system.l2.demand_mshr_miss_latency::.cpu.data  44377619749                       # number of demand (read+write) MSHR miss cycles
system.l2.demand_mshr_miss_latency::total  44417387997                       # number of demand (read+write) MSHR miss cycles
system.l2.overall_mshr_miss_latency::.cpu.inst     39768248                       # number of overall MSHR miss cycles
system.l2.overall_mshr_miss_latency::.cpu.data  44377619749                       # number of overall MSHR miss cycles
system.l2.overall_mshr_miss_latency::total  44417387997                       # number of overall MSHR miss cycles
system.l2.demand_mshr_miss_rate::.cpu.inst     0.372781                       # mshr miss rate for demand accesses
system.l2.demand_mshr_miss_rate::.cpu.data     0.999672                       # mshr miss rate for demand accesses
system.l2.demand_mshr_miss_rate::total       0.998388                       # mshr miss rate for demand accesses
system.l2.overall_mshr_miss_rate::.cpu.inst     0.372781                       # mshr miss rate for overall accesses
system.l2.overall_mshr_miss_rate::.cpu.data     0.999672                       # mshr miss rate for overall accesses
system.l2.overall_mshr_miss_rate::total      0.998388                       # mshr miss rate for overall accesses
system.l2.demand_avg_mshr_miss_latency::.cpu.inst 315621.015873                       # average overall mshr miss latency
system.l2.demand_avg_mshr_miss_latency::.cpu.data 269618.696605                       # average overall mshr miss latency
system.l2.demand_avg_mshr_miss_latency::total 269653.885363                       # average overall mshr miss latency
system.l2.overall_avg_mshr_miss_latency::.cpu.inst 315621.015873                       # average overall mshr miss latency
system.l2.overall_avg_mshr_miss_latency::.cpu.data 269618.696605                       # average overall mshr miss latency
system.l2.overall_avg_mshr_miss_latency::total 269653.885363                       # average overall mshr miss latency
system.l2.replacements                         163712                       # number of replacements
system.l2.WritebackDirty_hits::.writebacks       164488                       # number of WritebackDirty hits
system.l2.WritebackDirty_hits::total           164488                       # number of WritebackDirty hits
system.l2.WritebackDirty_accesses::.writebacks       164488                       # number of WritebackDirty accesses(hits+misses)
system.l2.WritebackDirty_accesses::total       164488                       # number of WritebackDirty accesses(hits+misses)
system.l2.WritebackClean_hits::.writebacks          257                       # number of WritebackClean hits
system.l2.WritebackClean_hits::total              257                       # number of WritebackClean hits
system.l2.WritebackClean_accesses::.writebacks          257                       # number of WritebackClean accesses(hits+misses)
system.l2.WritebackClean_accesses::total          257                       # number of WritebackClean accesses(hits+misses)
system.l2.ReadExReq_hits::.cpu.data                 9                       # number of ReadExReq hits
system.l2.ReadExReq_hits::total                     9                       # number of ReadExReq hits
system.l2.ReadExReq_misses::.cpu.data          164529                       # number of ReadExReq misses
system.l2.ReadExReq_misses::total              164529                       # number of ReadExReq misses
system.l2.ReadExReq_miss_latency::.cpu.data  45999362000                       # number of ReadExReq miss cycles
system.l2.ReadExReq_miss_latency::total   45999362000                       # number of ReadExReq miss cycles
system.l2.ReadExReq_accesses::.cpu.data        164538                       # number of ReadExReq accesses(hits+misses)
system.l2.ReadExReq_accesses::total            164538                       # number of ReadExReq accesses(hits+misses)
system.l2.ReadExReq_miss_rate::.cpu.data     0.999945                       # miss rate for ReadExReq accesses
system.l2.ReadExReq_miss_rate::total         0.999945                       # miss rate for ReadExReq accesses
system.l2.ReadExReq_avg_miss_latency::.cpu.data 279582.091911                       # average ReadExReq miss latency
system.l2.ReadExReq_avg_miss_latency::total 279582.091911                       # average ReadExReq miss latency
system.l2.ReadExReq_mshr_misses::.cpu.data       164529                       # number of ReadExReq MSHR misses
system.l2.ReadExReq_mshr_misses::total         164529                       # number of ReadExReq MSHR misses
system.l2.ReadExReq_mshr_miss_latency::.cpu.data  44354072000                       # number of ReadExReq MSHR miss cycles
system.l2.ReadExReq_mshr_miss_latency::total  44354072000                       # number of ReadExReq MSHR miss cycles
system.l2.ReadExReq_mshr_miss_rate::.cpu.data     0.999945                       # mshr miss rate for ReadExReq accesses
system.l2.ReadExReq_mshr_miss_rate::total     0.999945                       # mshr miss rate for ReadExReq accesses
system.l2.ReadExReq_avg_mshr_miss_latency::.cpu.data 269582.091911                       # average ReadExReq mshr miss latency
system.l2.ReadExReq_avg_mshr_miss_latency::total 269582.091911                       # average ReadExReq mshr miss latency
system.l2.ReadCleanReq_hits::.cpu.inst            212                       # number of ReadCleanReq hits
system.l2.ReadCleanReq_hits::total                212                       # number of ReadCleanReq hits
system.l2.ReadCleanReq_misses::.cpu.inst          126                       # number of ReadCleanReq misses
system.l2.ReadCleanReq_misses::total              126                       # number of ReadCleanReq misses
system.l2.ReadCleanReq_miss_latency::.cpu.inst     41028248                       # number of ReadCleanReq miss cycles
system.l2.ReadCleanReq_miss_latency::total     41028248                       # number of ReadCleanReq miss cycles
system.l2.ReadCleanReq_accesses::.cpu.inst          338                       # number of ReadCleanReq accesses(hits+misses)
system.l2.ReadCleanReq_accesses::total            338                       # number of ReadCleanReq accesses(hits+misses)
system.l2.ReadCleanReq_miss_rate::.cpu.inst     0.372781                       # miss rate for ReadCleanReq accesses
system.l2.ReadCleanReq_miss_rate::total      0.372781                       # miss rate for ReadCleanReq accesses
system.l2.ReadCleanReq_avg_miss_latency::.cpu.inst 325621.015873                       # average ReadCleanReq miss latency
system.l2.ReadCleanReq_avg_miss_latency::total 325621.015873                       # average ReadCleanReq miss latency
system.l2.ReadCleanReq_mshr_misses::.cpu.inst          126                       # number of ReadCleanReq MSHR misses
system.l2.ReadCleanReq_mshr_misses::total          126                       # number of ReadCleanReq MSHR misses
system.l2.ReadCleanReq_mshr_miss_latency::.cpu.inst     39768248                       # number of ReadCleanReq MSHR miss cycles
system.l2.ReadCleanReq_mshr_miss_latency::total     39768248                       # number of ReadCleanReq MSHR miss cycles
system.l2.ReadCleanReq_mshr_miss_rate::.cpu.inst     0.372781                       # mshr miss rate for ReadCleanReq accesses
system.l2.ReadCleanReq_mshr_miss_rate::total     0.372781                       # mshr miss rate for ReadCleanReq accesses
system.l2.ReadCleanReq_avg_mshr_miss_latency::.cpu.inst 315621.015873                       # average ReadCleanReq mshr miss latency
system.l2.ReadCleanReq_avg_mshr_miss_latency::total 315621.015873                       # average ReadCleanReq mshr miss latency
system.l2.ReadSharedReq_hits::.cpu.data            43                       # number of ReadSharedReq hits
system.l2.ReadSharedReq_hits::total                43                       # number of ReadSharedReq hits
system.l2.ReadSharedReq_misses::.cpu.data           67                       # number of ReadSharedReq misses
system.l2.ReadSharedReq_misses::total              67                       # number of ReadSharedReq misses
system.l2.ReadSharedReq_miss_latency::.cpu.data     24696249                       # number of ReadSharedReq miss cycles
system.l2.ReadSharedReq_miss_latency::total     24696249                       # number of ReadSharedReq miss cycles
system.l2.ReadSharedReq_accesses::.cpu.data          110                       # number of ReadSharedReq accesses(hits+misses)
system.l2.ReadSharedReq_accesses::total           110                       # number of ReadSharedReq accesses(hits+misses)
system.l2.ReadSharedReq_miss_rate::.cpu.data     0.609091                       # miss rate for ReadSharedReq accesses
system.l2.ReadSharedReq_miss_rate::total     0.609091                       # miss rate for ReadSharedReq accesses
system.l2.ReadSharedReq_avg_miss_latency::.cpu.data 368600.731343                       # average ReadSharedReq miss latency
system.l2.ReadSharedReq_avg_miss_latency::total 368600.731343                       # average ReadSharedReq miss latency
system.l2.ReadSharedReq_mshr_hits::.cpu.data            2                       # number of ReadSharedReq MSHR hits
system.l2.ReadSharedReq_mshr_hits::total            2                       # number of ReadSharedReq MSHR hits
system.l2.ReadSharedReq_mshr_misses::.cpu.data           65                       # number of ReadSharedReq MSHR misses
system.l2.ReadSharedReq_mshr_misses::total           65                       # number of ReadSharedReq MSHR misses
system.l2.ReadSharedReq_mshr_miss_latency::.cpu.data     23547749                       # number of ReadSharedReq MSHR miss cycles
system.l2.ReadSharedReq_mshr_miss_latency::total     23547749                       # number of ReadSharedReq MSHR miss cycles
system.l2.ReadSharedReq_mshr_miss_rate::.cpu.data     0.590909                       # mshr miss rate for ReadSharedReq accesses
system.l2.ReadSharedReq_mshr_miss_rate::total     0.590909                       # mshr miss rate for ReadSharedReq accesses
system.l2.ReadSharedReq_avg_mshr_miss_latency::.cpu.data 362273.061538                       # average ReadSharedReq mshr miss latency
system.l2.ReadSharedReq_avg_mshr_miss_latency::total 362273.061538                       # average ReadSharedReq mshr miss latency
system.l2.tags.pwrStateResidencyTicks::UNDEFINED 153606062000                       # Cumulative time (in ticks) in various power states
system.l2.tags.tagsinuse                  1005.885881                       # Cycle average of tags in use
system.l2.tags.total_refs                      329805                       # Total number of references to valid blocks.
system.l2.tags.sampled_refs                    164736                       # Sample count of references to valid blocks.
system.l2.tags.avg_refs                      2.002021                       # Average number of references to valid blocks.
system.l2.tags.warmup_cycle                    262000                       # Cycle when the warmup percentage was hit.
system.l2.tags.occ_blocks::.writebacks       0.088956                       # Average occupied blocks per requestor
system.l2.tags.occ_blocks::.cpu.inst         2.152491                       # Average occupied blocks per requestor
system.l2.tags.occ_blocks::.cpu.data      1003.644433                       # Average occupied blocks per requestor
system.l2.tags.occ_percent::.writebacks      0.000087                       # Average percentage of cache occupancy
system.l2.tags.occ_percent::.cpu.inst        0.002102                       # Average percentage of cache occupancy
system.l2.tags.occ_percent::.cpu.data        0.980122                       # Average percentage of cache occupancy
system.l2.tags.occ_percent::total            0.982310                       # Average percentage of cache occupancy
system.l2.tags.occ_task_id_blocks::1024          1024                       # Occupied blocks per task id
system.l2.tags.age_task_id_blocks_1024::0           11                       # Occupied blocks per task id
system.l2.tags.age_task_id_blocks_1024::1           98                       # Occupied blocks per task id
system.l2.tags.age_task_id_blocks_1024::2          915                       # Occupied blocks per task id
system.l2.tags.occ_task_id_percent::1024            1                       # Percentage of cache occupancy per task id
system.l2.tags.tag_accesses                   2803192                       # Number of tag accesses
system.l2.tags.data_accesses                  2803192                       # Number of data accesses
system.cpu_voltage_domain.voltage                   1                       # Voltage in Volts
system.mem_ctrls.pwrStateResidencyTicks::UNDEFINED 153606062000                       # Cumulative time (in ticks) in various power states
system.mem_ctrls.bytes_read::.cpu.inst         258048                       # Number of bytes read from this memory
system.mem_ctrls.bytes_read::.cpu.data      337088512                       # Number of bytes read from this memory
system.mem_ctrls.bytes_read::total          337346560                       # Number of bytes read from this memory
system.mem_ctrls.bytes_inst_read::.cpu.inst       258048                       # Number of instructions bytes read from this memory
system.mem_ctrls.bytes_inst_read::total        258048                       # Number of instructions bytes read from this memory
system.mem_ctrls.bytes_written::.writebacks    334876672                       # Number of bytes written to this memory
system.mem_ctrls.bytes_written::total       334876672                       # Number of bytes written to this memory
system.mem_ctrls.num_reads::.cpu.inst             126                       # Number of read requests responded to by this memory
system.mem_ctrls.num_reads::.cpu.data          164594                       # Number of read requests responded to by this memory
system.mem_ctrls.num_reads::total              164720                       # Number of read requests responded to by this memory
system.mem_ctrls.num_writes::.writebacks       163514                       # Number of write requests responded to by this memory
system.mem_ctrls.num_writes::total             163514                       # Number of write requests responded to by this memory
system.mem_ctrls.bw_read::.cpu.inst           1679934                       # Total read bandwidth from this memory (bytes/s)
system.mem_ctrls.bw_read::.cpu.data        2194500058                       # Total read bandwidth from this memory (bytes/s)
system.mem_ctrls.bw_read::total            2196179992                       # Total read bandwidth from this memory (bytes/s)
system.mem_ctrls.bw_inst_read::.cpu.inst      1679934                       # Instruction read bandwidth from this memory (bytes/s)
system.mem_ctrls.bw_inst_read::total          1679934                       # Instruction read bandwidth from this memory (bytes/s)
system.mem_ctrls.bw_write::.writebacks     2180100626                       # Write bandwidth from this memory (bytes/s)
system.mem_ctrls.bw_write::total           2180100626                       # Write bandwidth from this memory (bytes/s)
system.mem_ctrls.bw_total::.writebacks     2180100626                       # Total bandwidth to/from this memory (bytes/s)
system.mem_ctrls.bw_total::.cpu.inst          1679934                       # Total bandwidth to/from this memory (bytes/s)
system.mem_ctrls.bw_total::.cpu.data       2194500058                       # Total bandwidth to/from this memory (bytes/s)
system.mem_ctrls.bw_total::total           4376280618                       # Total bandwidth to/from this memory (bytes/s)
system.mem_ctrls.avgPriority_.writebacks::samples   5232448.00                       # Average QoS priority value for accepted requests
system.mem_ctrls.avgPriority_.cpu.inst::samples      4032.00                       # Average QoS priority value for accepted requests
system.mem_ctrls.avgPriority_.cpu.data::samples   5267008.00                       # Average QoS priority value for accepted requests
system.mem_ctrls.priorityMinLatency      0.000000018750                       # per QoS priority minimum request to response latency (s)
system.mem_ctrls.priorityMaxLatency      0.000203658750                       # per QoS priority maximum request to response latency (s)
system.mem_ctrls.numReadWriteTurnArounds       163496                       # Number of turnarounds from READ to WRITE
system.mem_ctrls.numWriteReadTurnArounds       163496                       # Number of turnarounds from WRITE to READ
system.mem_ctrls.numStayReadState             5626504                       # Number of times bus staying in READ state
system.mem_ctrls.numStayWriteState            5078246                       # Number of times bus staying in WRITE state
system.mem_ctrls.readReqs                      164720                       # Number of read requests accepted
system.mem_ctrls.writeReqs                     163514                       # Number of write requests accepted
system.mem_ctrls.readBursts                   5271040                       # Number of DRAM read bursts, including those serviced by the write queue
system.mem_ctrls.writeBursts                  5232448                       # Number of DRAM write bursts, including those merged in the write queue
system.mem_ctrls.servicedByWrQ                      0                       # Number of DRAM read bursts serviced by the write queue
system.mem_ctrls.mergedWrBursts                     0                       # Number of DRAM write bursts merged with an existing one
system.mem_ctrls.neitherReadNorWriteReqs            0                       # Number of requests that are neither read nor write
system.mem_ctrls.perBankRdBursts::0            329728                       # Per bank write bursts
system.mem_ctrls.perBankRdBursts::1            329728                       # Per bank write bursts
system.mem_ctrls.perBankRdBursts::2            329664                       # Per bank write bursts
system.mem_ctrls.perBankRdBursts::3            329600                       # Per bank write bursts
system.mem_ctrls.perBankRdBursts::4            329152                       # Per bank write bursts
system.mem_ctrls.perBankRdBursts::5            329344                       # Per bank write bursts
system.mem_ctrls.perBankRdBursts::6            329536                       # Per bank write bursts
system.mem_ctrls.perBankRdBursts::7            329280                       # Per bank write bursts
system.mem_ctrls.perBankRdBursts::8            328992                       # Per bank write bursts
system.mem_ctrls.perBankRdBursts::9            329216                       # Per bank write bursts
system.mem_ctrls.perBankRdBursts::10           329152                       # Per bank write bursts
system.mem_ctrls.perBankRdBursts::11           329632                       # Per bank write bursts
system.mem_ctrls.perBankRdBursts::12           329440                       # Per bank write bursts
system.mem_ctrls.perBankRdBursts::13           329568                       # Per bank write bursts
system.mem_ctrls.perBankRdBursts::14           329728                       # Per bank write bursts
system.mem_ctrls.perBankRdBursts::15           329280                       # Per bank write bursts
system.mem_ctrls.perBankWrBursts::0            327040                       # Per bank write bursts
system.mem_ctrls.perBankWrBursts::1            327249                       # Per bank write bursts
system.mem_ctrls.perBankWrBursts::2            327296                       # Per bank write bursts
system.mem_ctrls.perBankWrBursts::3            327136                       # Per bank write bursts
system.mem_ctrls.perBankWrBursts::4            327040                       # Per bank write bursts
system.mem_ctrls.perBankWrBursts::5            327136                       # Per bank write bursts
system.mem_ctrls.perBankWrBursts::6            327104                       # Per bank write bursts
system.mem_ctrls.perBankWrBursts::7            327008                       # Per bank write bursts
system.mem_ctrls.perBankWrBursts::8            326784                       # Per bank write bursts
system.mem_ctrls.perBankWrBursts::9            326784                       # Per bank write bursts
system.mem_ctrls.perBankWrBursts::10           326720                       # Per bank write bursts
system.mem_ctrls.perBankWrBursts::11           327104                       # Per bank write bursts
system.mem_ctrls.perBankWrBursts::12           327040                       # Per bank write bursts
system.mem_ctrls.perBankWrBursts::13           327008                       # Per bank write bursts
system.mem_ctrls.perBankWrBursts::14           327040                       # Per bank write bursts
system.mem_ctrls.perBankWrBursts::15           326944                       # Per bank write bursts
system.mem_ctrls.avgRdQLen                      32.00                       # Average read queue length when enqueuing
system.mem_ctrls.avgWrQLen                      45.94                       # Average write queue length when enqueuing
system.mem_ctrls.totQLat                 618034342000                       # Total ticks spent queuing
system.mem_ctrls.totBusLat                26355200000                       # Total ticks spent in databus transfers
system.mem_ctrls.totMemAccLat            716866342000                       # Total ticks spent from burst creation until serviced by the DRAM
system.mem_ctrls.avgQLat                    117250.93                       # Average queueing delay per DRAM burst
system.mem_ctrls.avgBusLat                    5000.00                       # Average bus latency per DRAM burst
system.mem_ctrls.avgMemAccLat               136000.93                       # Average memory access latency per DRAM burst
system.mem_ctrls.numRdRetry                      1293                       # Number of times read queue was full causing retry
system.mem_ctrls.numWrRetry                      1792                       # Number of times write queue was full causing retry
system.mem_ctrls.readRowHits                  4941589                       # Number of row buffer hits during reads
system.mem_ctrls.writeRowHits                 4862908                       # Number of row buffer hits during writes
system.mem_ctrls.readRowHitRate                 93.75                       # Row buffer hit rate for reads
system.mem_ctrls.writeRowHitRate                92.94                       # Row buffer hit rate for writes
system.mem_ctrls.readPktSize::0                     0                       # Read request sizes (log2)
system.mem_ctrls.readPktSize::1                     0                       # Read request sizes (log2)
system.mem_ctrls.readPktSize::2                     0                       # Read request sizes (log2)
system.mem_ctrls.readPktSize::3                     0                       # Read request sizes (log2)
system.mem_ctrls.readPktSize::4                     0                       # Read request sizes (log2)
system.mem_ctrls.readPktSize::5                     0                       # Read request sizes (log2)
system.mem_ctrls.readPktSize::6               5271040                       # Read request sizes (log2)
system.mem_ctrls.writePktSize::0                    0                       # Write request sizes (log2)
system.mem_ctrls.writePktSize::1                    0                       # Write request sizes (log2)
system.mem_ctrls.writePktSize::2                    0                       # Write request sizes (log2)
system.mem_ctrls.writePktSize::3                    0                       # Write request sizes (log2)
system.mem_ctrls.writePktSize::4                    0                       # Write request sizes (log2)
system.mem_ctrls.writePktSize::5                    0                       # Write request sizes (log2)
system.mem_ctrls.writePktSize::6              5232448                       # Write request sizes (log2)
system.mem_ctrls.rdQLenPdf::0                  164720                       # What read queue length does an incoming req see
system.mem_ctrls.rdQLenPdf::1                  164720                       # What read queue length does an incoming req see
system.mem_ctrls.rdQLenPdf::2                  164720                       # What read queue length does an incoming req see
system.mem_ctrls.rdQLenPdf::3                  164720                       # What read queue length does an incoming req see
system.mem_ctrls.rdQLenPdf::4                  164720                       # What read queue length does an incoming req see
system.mem_ctrls.rdQLenPdf::5                  164720                       # What read queue length does an incoming req see
system.mem_ctrls.rdQLenPdf::6                  164720                       # What read queue length does an incoming req see
system.mem_ctrls.rdQLenPdf::7                  164720                       # What read queue length does an incoming req see
system.mem_ctrls.rdQLenPdf::8                  164720                       # What read queue length does an incoming req see
system.mem_ctrls.rdQLenPdf::9                  164720                       # What read queue length does an incoming req see
system.mem_ctrls.rdQLenPdf::10                 164720                       # What read queue length does an incoming req see
system.mem_ctrls.rdQLenPdf::11                 164720                       # What read queue length does an incoming req see
system.mem_ctrls.rdQLenPdf::12                 164720                       # What read queue length does an incoming req see
system.mem_ctrls.rdQLenPdf::13                 164720                       # What read queue length does an incoming req see
system.mem_ctrls.rdQLenPdf::14                 164720                       # What read queue length does an incoming req see
system.mem_ctrls.rdQLenPdf::15                 164720                       # What read queue length does an incoming req see
system.mem_ctrls.rdQLenPdf::16                 164720                       # What read queue length does an incoming req see
system.mem_ctrls.rdQLenPdf::17                 164720                       # What read queue length does an incoming req see
system.mem_ctrls.rdQLenPdf::18                 164720                       # What read queue length does an incoming req see
system.mem_ctrls.rdQLenPdf::19                 164720                       # What read queue length does an incoming req see
system.mem_ctrls.rdQLenPdf::20                 164720                       # What read queue length does an incoming req see
system.mem_ctrls.rdQLenPdf::21                 164720                       # What read queue length does an incoming req see
system.mem_ctrls.rdQLenPdf::22                 164720                       # What read queue length does an incoming req see
system.mem_ctrls.rdQLenPdf::23                 164720                       # What read queue length does an incoming req see
system.mem_ctrls.rdQLenPdf::24                 164720                       # What read queue length does an incoming req see
system.mem_ctrls.rdQLenPdf::25                 164720                       # What read queue length does an incoming req see
system.mem_ctrls.rdQLenPdf::26                 164720                       # What read queue length does an incoming req see
system.mem_ctrls.rdQLenPdf::27                 164720                       # What read queue length does an incoming req see
system.mem_ctrls.rdQLenPdf::28                 164720                       # What read queue length does an incoming req see
system.mem_ctrls.rdQLenPdf::29                 164720                       # What read queue length does an incoming req see
system.mem_ctrls.rdQLenPdf::30                 164720                       # What read queue length does an incoming req see
system.mem_ctrls.rdQLenPdf::31                 164720                       # What read queue length does an incoming req see
system.mem_ctrls.wrQLenPdf::0                       1                       # What write queue length does an incoming req see
system.mem_ctrls.wrQLenPdf::1                       1                       # What write queue length does an incoming req see
system.mem_ctrls.wrQLenPdf::2                       1                       # What write queue length does an incoming req see
system.mem_ctrls.wrQLenPdf::3                       1                       # What write queue length does an incoming req see
system.mem_ctrls.wrQLenPdf::4                       1                       # What write queue length does an incoming req see
system.mem_ctrls.wrQLenPdf::5                       1                       # What write queue length does an incoming req see
system.mem_ctrls.wrQLenPdf::6                       1                       # What write queue length does an incoming req see
system.mem_ctrls.wrQLenPdf::7                       1                       # What write queue length does an incoming req see
system.mem_ctrls.wrQLenPdf::8                       1                       # What write queue length does an incoming req see
system.mem_ctrls.wrQLenPdf::9                       1                       # What write queue length does an incoming req see
system.mem_ctrls.wrQLenPdf::10                      1                       # What write queue length does an incoming req see
system.mem_ctrls.wrQLenPdf::11                      1                       # What write queue length does an incoming req see
system.mem_ctrls.wrQLenPdf::12                      1                       # What write queue length does an incoming req see
system.mem_ctrls.wrQLenPdf::13                      1                       # What write queue length does an incoming req see
system.mem_ctrls.wrQLenPdf::14                      1                       # What write queue length does an incoming req see
system.mem_ctrls.wrQLenPdf::15                 163407                       # What write queue length does an incoming req see
system.mem_ctrls.wrQLenPdf::16                 163407                       # What write queue length does an incoming req see
system.mem_ctrls.wrQLenPdf::17                 163412                       # What write queue length does an incoming req see
system.mem_ctrls.wrQLenPdf::18                 163416                       # What write queue length does an incoming req see
system.mem_ctrls.wrQLenPdf::19                 163417                       # What write queue length does an incoming req see
system.mem_ctrls.wrQLenPdf::20                 163419                       # What write queue length does an incoming req see
system.mem_ctrls.wrQLenPdf::21                 163419                       # What write queue length does an incoming req see
system.mem_ctrls.wrQLenPdf::22                 163419                       # What write queue length does an incoming req see
system.mem_ctrls.wrQLenPdf::23                 163419                       # What write queue length does an incoming req see
system.mem_ctrls.wrQLenPdf::24                 163420                       # What write queue length does an incoming req see
system.mem_ctrls.wrQLenPdf::25                 163423                       # What write queue length does an incoming req see
system.mem_ctrls.wrQLenPdf::26                 163423                       # What write queue length does an incoming req see
system.mem_ctrls.wrQLenPdf::27                 163425                       # What write queue length does an incoming req see
system.mem_ctrls.wrQLenPdf::28                 163433                       # What write queue length does an incoming req see
system.mem_ctrls.wrQLenPdf::29                 163436                       # What write queue length does an incoming req see
system.mem_ctrls.wrQLenPdf::30                 163450                       # What write queue length does an incoming req see
system.mem_ctrls.wrQLenPdf::31                 163453                       # What write queue length does an incoming req see
system.mem_ctrls.wrQLenPdf::32                 163513                       # What write queue length does an incoming req see
system.mem_ctrls.wrQLenPdf::33                 163513                       # What write queue length does an incoming req see
system.mem_ctrls.wrQLenPdf::34                 163513                       # What write queue length does an incoming req see
system.mem_ctrls.wrQLenPdf::35                 163513                       # What write queue length does an incoming req see
system.mem_ctrls.wrQLenPdf::36                 163513                       # What write queue length does an incoming req see
system.mem_ctrls.wrQLenPdf::37                 163513                       # What write queue length does an incoming req see
system.mem_ctrls.wrQLenPdf::38                 163513                       # What write queue length does an incoming req see
system.mem_ctrls.wrQLenPdf::39                 163513                       # What write queue length does an incoming req see
system.mem_ctrls.wrQLenPdf::40                 163513                       # What write queue length does an incoming req see
system.mem_ctrls.wrQLenPdf::41                 163513                       # What write queue length does an incoming req see
system.mem_ctrls.wrQLenPdf::42                 163513                       # What write queue length does an incoming req see
system.mem_ctrls.wrQLenPdf::43                 163513                       # What write queue length does an incoming req see
system.mem_ctrls.wrQLenPdf::44                 163513                       # What write queue length does an incoming req see
system.mem_ctrls.wrQLenPdf::45                 163513                       # What write queue length does an incoming req see
system.mem_ctrls.wrQLenPdf::46                 163513                       # What write queue length does an incoming req see
system.mem_ctrls.wrQLenPdf::47                    107                       # What write queue length does an incoming req see
system.mem_ctrls.wrQLenPdf::48                    107                       # What write queue length does an incoming req see
system.mem_ctrls.wrQLenPdf::49                    102                       # What write queue length does an incoming req see
system.mem_ctrls.wrQLenPdf::50                     98                       # What write queue length does an incoming req see
system.mem_ctrls.wrQLenPdf::51                     97                       # What write queue length does an incoming req see
system.mem_ctrls.wrQLenPdf::52                     95                       # What write queue length does an incoming req see
system.mem_ctrls.wrQLenPdf::53                     95                       # What write queue length does an incoming req see
system.mem_ctrls.wrQLenPdf::54                     95                       # What write queue length does an incoming req see
system.mem_ctrls.wrQLenPdf::55                     95                       # What write queue length does an incoming req see
system.mem_ctrls.wrQLenPdf::56                     94                       # What write queue length does an incoming req see
system.mem_ctrls.wrQLenPdf::57                     91                       # What write queue length does an incoming req see
system.mem_ctrls.wrQLenPdf::58                     91                       # What write queue length does an incoming req see
system.mem_ctrls.wrQLenPdf::59                     89                       # What write queue length does an incoming req see
system.mem_ctrls.wrQLenPdf::60                     81                       # What write queue length does an incoming req see
system.mem_ctrls.wrQLenPdf::61                     78                       # What write queue length does an incoming req see
system.mem_ctrls.wrQLenPdf::62                     64                       # What write queue length does an incoming req see
system.mem_ctrls.wrQLenPdf::63                     61                       # What write queue length does an incoming req see
system.mem_ctrls.bytesPerActivate::samples       698974                       # Bytes accessed per row activation
system.mem_ctrls.bytesPerActivate::mean    961.724402                       # Bytes accessed per row activation
system.mem_ctrls.bytesPerActivate::gmean   863.143244                       # Bytes accessed per row activation
system.mem_ctrls.bytesPerActivate::stdev   228.264310                       # Bytes accessed per row activation
system.mem_ctrls.bytesPerActivate::0-127        41293      5.91%      5.91% # Bytes accessed per row activation
system.mem_ctrls.bytesPerActivate::128-255         1196      0.17%      6.08% # Bytes accessed per row activation
system.mem_ctrls.bytesPerActivate::256-383            7      0.00%      6.08% # Bytes accessed per row activation
system.mem_ctrls.bytesPerActivate::384-511           12      0.00%      6.08% # Bytes accessed per row activation
system.mem_ctrls.bytesPerActivate::512-639            7      0.00%      6.08% # Bytes accessed per row activation
system.mem_ctrls.bytesPerActivate::640-767           10      0.00%      6.08% # Bytes accessed per row activation
system.mem_ctrls.bytesPerActivate::768-895         1197      0.17%      6.26% # Bytes accessed per row activation
system.mem_ctrls.bytesPerActivate::896-1023        40399      5.78%     12.03% # Bytes accessed per row activation
system.mem_ctrls.bytesPerActivate::1024-1151       614853     87.97%    100.00% # Bytes accessed per row activation
system.mem_ctrls.bytesPerActivate::total       698974                       # Bytes accessed per row activation
system.mem_ctrls.rdPerTurnAround::samples       163496                       # Reads before turning the bus around for writes
system.mem_ctrls.rdPerTurnAround::mean      32.239565                       # Reads before turning the bus around for writes
system.mem_ctrls.rdPerTurnAround::gmean     32.022014                       # Reads before turning the bus around for writes
system.mem_ctrls.rdPerTurnAround::stdev     69.550545                       # Reads before turning the bus around for writes
system.mem_ctrls.rdPerTurnAround::0-1023       163493    100.00%    100.00% # Reads before turning the bus around for writes
system.mem_ctrls.rdPerTurnAround::1024-2047            2      0.00%    100.00% # Reads before turning the bus around for writes
system.mem_ctrls.rdPerTurnAround::27648-28671            1      0.00%    100.00% # Reads before turning the bus around for writes
system.mem_ctrls.rdPerTurnAround::total        163496                       # Reads before turning the bus around for writes
system.mem_ctrls.wrPerTurnAround::samples       163496                       # Writes before turning the bus around for reads
system.mem_ctrls.wrPerTurnAround::mean      32.003431                       # Writes before turning the bus around for reads
system.mem_ctrls.wrPerTurnAround::gmean     32.000256                       # Writes before turning the bus around for reads
system.mem_ctrls.wrPerTurnAround::stdev      0.607441                       # Writes before turning the bus around for reads
system.mem_ctrls.wrPerTurnAround::16-19            26      0.02%      0.02% # Writes before turning the bus around for reads
system.mem_ctrls.wrPerTurnAround::24-27             1      0.00%      0.02% # Writes before turning the bus around for reads
[...]
system.cpu.icache.ReadReq_miss_rate::.cpu.inst     0.000011                       # miss rate for ReadReq accesses
system.cpu.icache.ReadReq_miss_rate::total     0.000011                       # miss rate for ReadReq accesses
system.cpu.icache.ReadReq_avg_miss_latency::.cpu.inst       146750                       # average ReadReq miss latency
system.cpu.icache.ReadReq_avg_miss_latency::total       146750                       # average ReadReq miss latency
system.cpu.icache.ReadReq_mshr_misses::.cpu.inst          338                       # number of ReadReq MSHR misses
system.cpu.icache.ReadReq_mshr_misses::total          338                       # number of ReadReq MSHR misses
system.cpu.icache.ReadReq_mshr_miss_latency::.cpu.inst     49263500                       # number of ReadReq MSHR miss cycles
system.cpu.icache.ReadReq_mshr_miss_latency::total     49263500                       # number of ReadReq MSHR miss cycles
system.cpu.icache.ReadReq_mshr_miss_rate::.cpu.inst     0.000011                       # mshr miss rate for ReadReq accesses
system.cpu.icache.ReadReq_mshr_miss_rate::total     0.000011                       # mshr miss rate for ReadReq accesses
system.cpu.icache.ReadReq_avg_mshr_miss_latency::.cpu.inst       145750                       # average ReadReq mshr miss latency
system.cpu.icache.ReadReq_avg_mshr_miss_latency::total       145750                       # average ReadReq mshr miss latency
system.cpu.icache.tags.pwrStateResidencyTicks::UNDEFINED 153606062000                       # Cumulative time (in ticks) in various power states
system.cpu.icache.tags.tagsinuse            15.999321                       # Cycle average of tags in use
system.cpu.icache.tags.total_refs            31688834                       # Total number of references to valid blocks.
system.cpu.icache.tags.sampled_refs               338                       # Sample count of references to valid blocks.
system.cpu.icache.tags.avg_refs          93753.946746                       # Average number of references to valid blocks.
system.cpu.icache.tags.warmup_cycle            272500                       # Cycle when the warmup percentage was hit.
system.cpu.icache.tags.occ_blocks::.cpu.inst    15.999321                       # Average occupied blocks per requestor
system.cpu.icache.tags.occ_percent::.cpu.inst     0.999958                       # Average percentage of cache occupancy
system.cpu.icache.tags.occ_percent::total     0.999958                       # Average percentage of cache occupancy
system.cpu.icache.tags.occ_task_id_blocks::1024           16                       # Occupied blocks per task id
system.cpu.icache.tags.age_task_id_blocks_1024::4           16                       # Occupied blocks per task id
system.cpu.icache.tags.occ_task_id_percent::1024            1                       # Percentage of cache occupancy per task id
system.cpu.icache.tags.tag_accesses          63378006                       # Number of tag accesses
system.cpu.icache.tags.data_accesses         63378006                       # Number of data accesses
system.cpu.dtb.walker.pwrStateResidencyTicks::UNDEFINED 153606062000                       # Cumulative time (in ticks) in various power states
system.cpu.dtb.stage2_mmu.stage2_tlb.walker.pwrStateResidencyTicks::UNDEFINED 153606062000                       # Cumulative time (in ticks) in various power states
system.cpu.dcache.pwrStateResidencyTicks::UNDEFINED 153606062000                       # Cumulative time (in ticks) in various power states
system.cpu.dcache.demand_hits::.cpu.data     86051374                       # number of demand (read+write) hits
system.cpu.dcache.demand_hits::total         86051374                       # number of demand (read+write) hits
system.cpu.dcache.overall_hits::.cpu.data     86051441                       # number of overall hits
system.cpu.dcache.overall_hits::total        86051441                       # number of overall hits
system.cpu.dcache.demand_misses::.cpu.data       329161                       # number of demand (read+write) misses
system.cpu.dcache.demand_misses::total         329161                       # number of demand (read+write) misses
system.cpu.dcache.overall_misses::.cpu.data       329165                       # number of overall misses
system.cpu.dcache.overall_misses::total        329165                       # number of overall misses
system.cpu.dcache.demand_miss_latency::.cpu.data  98010302000                       # number of demand (read+write) miss cycles
system.cpu.dcache.demand_miss_latency::total  98010302000                       # number of demand (read+write) miss cycles
system.cpu.dcache.overall_miss_latency::.cpu.data  98010302000                       # number of overall miss cycles
system.cpu.dcache.overall_miss_latency::total  98010302000                       # number of overall miss cycles
system.cpu.dcache.demand_accesses::.cpu.data     86380535                       # number of demand (read+write) accesses
system.cpu.dcache.demand_accesses::total     86380535                       # number of demand (read+write) accesses
system.cpu.dcache.overall_accesses::.cpu.data     86380606                       # number of overall (read+write) accesses
system.cpu.dcache.overall_accesses::total     86380606                       # number of overall (read+write) accesses
system.cpu.dcache.demand_miss_rate::.cpu.data     0.003811                       # miss rate for demand accesses
system.cpu.dcache.demand_miss_rate::total     0.003811                       # miss rate for demand accesses
system.cpu.dcache.overall_miss_rate::.cpu.data     0.003811                       # miss rate for overall accesses
system.cpu.dcache.overall_miss_rate::total     0.003811                       # miss rate for overall accesses
system.cpu.dcache.demand_avg_miss_latency::.cpu.data 297757.942162                       # average overall miss latency
system.cpu.dcache.demand_avg_miss_latency::total 297757.942162                       # average overall miss latency
system.cpu.dcache.overall_avg_miss_latency::.cpu.data 297754.323819                       # average overall miss latency
system.cpu.dcache.overall_avg_miss_latency::total 297754.323819                       # average overall miss latency
system.cpu.dcache.blocked_cycles::no_mshrs            0                       # number of cycles access was blocked
system.cpu.dcache.blocked_cycles::no_targets            0                       # number of cycles access was blocked
system.cpu.dcache.blocked::no_mshrs                 0                       # number of cycles access was blocked
system.cpu.dcache.blocked::no_targets               0                       # number of cycles access was blocked
system.cpu.dcache.avg_blocked_cycles::no_mshrs          nan                       # average number of cycles each access was blocked
system.cpu.dcache.avg_blocked_cycles::no_targets          nan                       # average number of cycles each access was blocked
system.cpu.dcache.writebacks::.writebacks       164488                       # number of writebacks
system.cpu.dcache.writebacks::total            164488                       # number of writebacks
system.cpu.dcache.demand_mshr_hits::.cpu.data       164515                       # number of demand (read+write) MSHR hits
system.cpu.dcache.demand_mshr_hits::total       164515                       # number of demand (read+write) MSHR hits
system.cpu.dcache.overall_mshr_hits::.cpu.data       164515                       # number of overall MSHR hits
system.cpu.dcache.overall_mshr_hits::total       164515                       # number of overall MSHR hits
system.cpu.dcache.demand_mshr_misses::.cpu.data       164646                       # number of demand (read+write) MSHR misses
system.cpu.dcache.demand_mshr_misses::total       164646                       # number of demand (read+write) MSHR misses
system.cpu.dcache.overall_mshr_misses::.cpu.data       164648                       # number of overall MSHR misses
system.cpu.dcache.overall_mshr_misses::total       164648                       # number of overall MSHR misses
system.cpu.dcache.demand_mshr_miss_latency::.cpu.data  46274221000                       # number of demand (read+write) MSHR miss cycles
system.cpu.dcache.demand_mshr_miss_latency::total  46274221000                       # number of demand (read+write) MSHR miss cycles
system.cpu.dcache.overall_mshr_miss_latency::.cpu.data  46275206000                       # number of overall MSHR miss cycles
system.cpu.dcache.overall_mshr_miss_latency::total  46275206000                       # number of overall MSHR miss cycles
system.cpu.dcache.demand_mshr_miss_rate::.cpu.data     0.001906                       # mshr miss rate for demand accesses
system.cpu.dcache.demand_mshr_miss_rate::total     0.001906                       # mshr miss rate for demand accesses
system.cpu.dcache.overall_mshr_miss_rate::.cpu.data     0.001906                       # mshr miss rate for overall accesses
system.cpu.dcache.overall_mshr_miss_rate::total     0.001906                       # mshr miss rate for overall accesses
system.cpu.dcache.demand_avg_mshr_miss_latency::.cpu.data 281052.810272                       # average overall mshr miss latency
system.cpu.dcache.demand_avg_mshr_miss_latency::total 281052.810272                       # average overall mshr miss latency
system.cpu.dcache.overall_avg_mshr_miss_latency::.cpu.data 281055.378747                       # average overall mshr miss latency
system.cpu.dcache.overall_avg_mshr_miss_latency::total 281055.378747                       # average overall mshr miss latency
system.cpu.dcache.replacements                 164584                       # number of replacements
system.cpu.dcache.ReadReq_hits::.cpu.data      2043907                       # number of ReadReq hits
system.cpu.dcache.ReadReq_hits::total         2043907                       # number of ReadReq hits
system.cpu.dcache.ReadReq_misses::.cpu.data          121                       # number of ReadReq misses
system.cpu.dcache.ReadReq_misses::total           121                       # number of ReadReq misses
system.cpu.dcache.ReadReq_miss_latency::.cpu.data     31514000                       # number of ReadReq miss cycles
system.cpu.dcache.ReadReq_miss_latency::total     31514000                       # number of ReadReq miss cycles
system.cpu.dcache.ReadReq_accesses::.cpu.data      2044028                       # number of ReadReq accesses(hits+misses)
system.cpu.dcache.ReadReq_accesses::total      2044028                       # number of ReadReq accesses(hits+misses)
system.cpu.dcache.ReadReq_miss_rate::.cpu.data     0.000059                       # miss rate for ReadReq accesses
system.cpu.dcache.ReadReq_miss_rate::total     0.000059                       # miss rate for ReadReq accesses
system.cpu.dcache.ReadReq_avg_miss_latency::.cpu.data 260446.280992                       # average ReadReq miss latency
system.cpu.dcache.ReadReq_avg_miss_latency::total 260446.280992                       # average ReadReq miss latency
system.cpu.dcache.ReadReq_mshr_hits::.cpu.data           13                       # number of ReadReq MSHR hits
system.cpu.dcache.ReadReq_mshr_hits::total           13                       # number of ReadReq MSHR hits
system.cpu.dcache.ReadReq_mshr_misses::.cpu.data          108                       # number of ReadReq MSHR misses
system.cpu.dcache.ReadReq_mshr_misses::total          108                       # number of ReadReq MSHR misses
system.cpu.dcache.ReadReq_mshr_miss_latency::.cpu.data     27310000                       # number of ReadReq MSHR miss cycles
system.cpu.dcache.ReadReq_mshr_miss_latency::total     27310000                       # number of ReadReq MSHR miss cycles
system.cpu.dcache.ReadReq_mshr_miss_rate::.cpu.data     0.000053                       # mshr miss rate for ReadReq accesses
system.cpu.dcache.ReadReq_mshr_miss_rate::total     0.000053                       # mshr miss rate for ReadReq accesses
system.cpu.dcache.ReadReq_avg_mshr_miss_latency::.cpu.data 252870.370370                       # average ReadReq mshr miss latency
system.cpu.dcache.ReadReq_avg_mshr_miss_latency::total 252870.370370                       # average ReadReq mshr miss latency
system.cpu.dcache.WriteReq_hits::.cpu.data     84007467                       # number of WriteReq hits
system.cpu.dcache.WriteReq_hits::total       84007467                       # number of WriteReq hits
system.cpu.dcache.WriteReq_misses::.cpu.data       329040                       # number of WriteReq misses
system.cpu.dcache.WriteReq_misses::total       329040                       # number of WriteReq misses
system.cpu.dcache.WriteReq_miss_latency::.cpu.data  97978788000                       # number of WriteReq miss cycles
system.cpu.dcache.WriteReq_miss_latency::total  97978788000                       # number of WriteReq miss cycles
system.cpu.dcache.WriteReq_accesses::.cpu.data     84336507                       # number of WriteReq accesses(hits+misses)
system.cpu.dcache.WriteReq_accesses::total     84336507                       # number of WriteReq accesses(hits+misses)
system.cpu.dcache.WriteReq_miss_rate::.cpu.data     0.003902                       # miss rate for WriteReq accesses
system.cpu.dcache.WriteReq_miss_rate::total     0.003902                       # miss rate for WriteReq accesses
system.cpu.dcache.WriteReq_avg_miss_latency::.cpu.data 297771.663020                       # average WriteReq miss latency
system.cpu.dcache.WriteReq_avg_miss_latency::total 297771.663020                       # average WriteReq miss latency
system.cpu.dcache.WriteReq_mshr_hits::.cpu.data       164502                       # number of WriteReq MSHR hits
system.cpu.dcache.WriteReq_mshr_hits::total       164502                       # number of WriteReq MSHR hits
system.cpu.dcache.WriteReq_mshr_misses::.cpu.data       164538                       # number of WriteReq MSHR misses
system.cpu.dcache.WriteReq_mshr_misses::total       164538                       # number of WriteReq MSHR misses
system.cpu.dcache.WriteReq_mshr_miss_latency::.cpu.data  46246911000                       # number of WriteReq MSHR miss cycles
system.cpu.dcache.WriteReq_mshr_miss_latency::total  46246911000                       # number of WriteReq MSHR miss cycles
system.cpu.dcache.WriteReq_mshr_miss_rate::.cpu.data     0.001951                       # mshr miss rate for WriteReq accesses
system.cpu.dcache.WriteReq_mshr_miss_rate::total     0.001951                       # mshr miss rate for WriteReq accesses
system.cpu.dcache.WriteReq_avg_mshr_miss_latency::.cpu.data 281071.308755                       # average WriteReq mshr miss latency
system.cpu.dcache.WriteReq_avg_mshr_miss_latency::total 281071.308755                       # average WriteReq mshr miss latency
system.cpu.dcache.SoftPFReq_hits::.cpu.data           67                       # number of SoftPFReq hits
system.cpu.dcache.SoftPFReq_hits::total            67                       # number of SoftPFReq hits
system.cpu.dcache.SoftPFReq_misses::.cpu.data            4                       # number of SoftPFReq misses
system.cpu.dcache.SoftPFReq_misses::total            4                       # number of SoftPFReq misses
system.cpu.dcache.SoftPFReq_accesses::.cpu.data           71                       # number of SoftPFReq accesses(hits+misses)
system.cpu.dcache.SoftPFReq_accesses::total           71                       # number of SoftPFReq accesses(hits+misses)
system.cpu.dcache.SoftPFReq_miss_rate::.cpu.data     0.056338                       # miss rate for SoftPFReq accesses
system.cpu.dcache.SoftPFReq_miss_rate::total     0.056338                       # miss rate for SoftPFReq accesses
system.cpu.dcache.SoftPFReq_mshr_misses::.cpu.data            2                       # number of SoftPFReq MSHR misses
system.cpu.dcache.SoftPFReq_mshr_misses::total            2                       # number of SoftPFReq MSHR misses
system.cpu.dcache.SoftPFReq_mshr_miss_latency::.cpu.data       985000                       # number of SoftPFReq MSHR miss cycles
system.cpu.dcache.SoftPFReq_mshr_miss_latency::total       985000                       # number of SoftPFReq MSHR miss cycles
system.cpu.dcache.SoftPFReq_mshr_miss_rate::.cpu.data     0.028169                       # mshr miss rate for SoftPFReq accesses
system.cpu.dcache.SoftPFReq_mshr_miss_rate::total     0.028169                       # mshr miss rate for SoftPFReq accesses
system.cpu.dcache.SoftPFReq_avg_mshr_miss_latency::.cpu.data       492500                       # average SoftPFReq mshr miss latency
system.cpu.dcache.SoftPFReq_avg_mshr_miss_latency::total       492500                       # average SoftPFReq mshr miss latency
system.cpu.dcache.LoadLockedReq_hits::.cpu.data           34                       # number of LoadLockedReq hits
system.cpu.dcache.LoadLockedReq_hits::total           34                       # number of LoadLockedReq hits
system.cpu.dcache.LoadLockedReq_accesses::.cpu.data           34                       # number of LoadLockedReq accesses(hits+misses)
system.cpu.dcache.LoadLockedReq_accesses::total           34                       # number of LoadLockedReq accesses(hits+misses)
system.cpu.dcache.StoreCondReq_hits::.cpu.data           34                       # number of StoreCondReq hits
system.cpu.dcache.StoreCondReq_hits::total           34                       # number of StoreCondReq hits
system.cpu.dcache.StoreCondReq_accesses::.cpu.data           34                       # number of StoreCondReq accesses(hits+misses)
system.cpu.dcache.StoreCondReq_accesses::total           34                       # number of StoreCondReq accesses(hits+misses)
system.cpu.dcache.tags.pwrStateResidencyTicks::UNDEFINED 153606062000                       # Cumulative time (in ticks) in various power states
system.cpu.dcache.tags.tagsinuse            63.977574                       # Cycle average of tags in use
system.cpu.dcache.tags.total_refs            86216157                       # Total number of references to valid blocks.
system.cpu.dcache.tags.sampled_refs            164648                       # Sample count of references to valid blocks.
system.cpu.dcache.tags.avg_refs            523.639261                       # Average number of references to valid blocks.
system.cpu.dcache.tags.warmup_cycle            762500                       # Cycle when the warmup percentage was hit.
system.cpu.dcache.tags.occ_blocks::.cpu.data    63.977574                       # Average occupied blocks per requestor
system.cpu.dcache.tags.occ_percent::.cpu.data     0.999650                       # Average percentage of cache occupancy
system.cpu.dcache.tags.occ_percent::total     0.999650                       # Average percentage of cache occupancy
system.cpu.dcache.tags.occ_task_id_blocks::1024           64                       # Occupied blocks per task id
system.cpu.dcache.tags.age_task_id_blocks_1024::0           11                       # Occupied blocks per task id
system.cpu.dcache.tags.age_task_id_blocks_1024::1           53                       # Occupied blocks per task id
system.cpu.dcache.tags.occ_task_id_percent::1024            1                       # Percentage of cache occupancy per task id
system.cpu.dcache.tags.tag_accesses         345687344                       # Number of tag accesses
system.cpu.dcache.tags.data_accesses        345687344                       # Number of data accesses
system.cpu.itb.walker.pwrStateResidencyTicks::UNDEFINED 153606062000                       # Cumulative time (in ticks) in various power states
system.cpu.itb.stage2_mmu.stage2_tlb.walker.pwrStateResidencyTicks::UNDEFINED 153606062000                       # Cumulative time (in ticks) in various power states

---------- End Simulation Statistics   ----------
